#RADIOSS STARTER
/BEGIN
IMPLPRESS - rigid punch on elastic pad, implicit contact
/NODE
         1        0.0000000000        0.0000000000        0.0000000000
         2       10.0000000000        0.0000000000        0.0000000000
         3       20.0000000000        0.0000000000        0.0000000000
         4       30.0000000000        0.0000000000        0.0000000000
         5       40.0000000000        0.0000000000        0.0000000000
         6        0.0000000000       10.0000000000        0.0000000000
         7       10.0000000000       10.0000000000        0.0000000000
         8       20.0000000000       10.0000000000        0.0000000000
         9       30.0000000000       10.0000000000        0.0000000000
        10       40.0000000000       10.0000000000        0.0000000000
        11        0.0000000000       20.0000000000        0.0000000000
        12       10.0000000000       20.0000000000        0.0000000000
        13       20.0000000000       20.0000000000        0.0000000000
        14       30.0000000000       20.0000000000        0.0000000000
        15       40.0000000000       20.0000000000        0.0000000000
        16        0.0000000000       30.0000000000        0.0000000000
        17       10.0000000000       30.0000000000        0.0000000000
        18       20.0000000000       30.0000000000        0.0000000000
        19       30.0000000000       30.0000000000        0.0000000000
        20       40.0000000000       30.0000000000        0.0000000000
# ... 88 like lines cut
/BRICK/1
         1         1         2         7         6        26        27        32        31
         2         2         3         8         7        27        28        33        32
         3         3         4         9         8        28        29        34        33
         4         4         5        10         9        29        30        35        34
         5         6         7        12        11        31        32        37        36
         6         7         8        13        12        32        33        38        37
         7         8         9        14        13        33        34        39        38
         8         9        10        15        14        34        35        40        39
         9        11        12        17        16        36        37        42        41
        10        12        13        18        17        37        38        43        42
        11        13        14        19        18        38        39        44        43
        12        14        15        20        19        39        40        45        44
        13        16        17        22        21        41        42        47        46
        14        17        18        23        22        42        43        48        47
        15        18        19        24        23        43        44        49        48
        16        19        20        25        24        44        45        50        49
        17        26        27        32        31        51        52        57        56
        18        27        28        33        32        52        53        58        57
        19        28        29        34        33        53        54        59        58
        20        29        30        35        34        54        55        60        59
# ... 12 like lines cut
/BRICK/2
        33        76        77        81        80        92        93        97        96
        34        77        78        82        81        93        94        98        97
        35        78        79        83        82        94        95        99        98
        36        80        81        85        84        96        97       101       100
        37        81        82        86        85        97        98       102       101
        38        82        83        87        86        98        99       103       102
        39        84        85        89        88       100       101       105       104
        40        85        86        90        89       101       102       106       105
        41        86        87        91        90       102       103       107       106
/PART/1
pad
         1         1
/PART/2
punch
         1         2
/MAT/LAW1/1
polymer pad
   1.2e-6
       2.0       0.3
/MAT/LAW1/2
steel punch
   7.8e-6
     210.0       0.3
/PROP/SOLID/1
solid
       1.1      0.05       0.1
/GRNOD/NODE/1
pad base
1 2 3 4 5 6 7 8 9 10 11 12 13 14 15 16 17 18 19 20 21 22 23 24 25
/GRNOD/NODE/2
punch bottom
76 77 78 79 80 81 82 83 84 85 86 87 88 89 90 91
/GRNOD/NODE/3
punch all
76 77 78 79 80 81 82 83 84 85 86 87 88 89 90 91 92 93 94 95 96 97 98 99 100 101 102 103 104 105 106 107
/GRNOD/NODE/4
ram
108
/SURF/PART/1
pad surface
         1
/RBE2/1
press ram
       108         3
/BCS/1
pad base clamp
       111       000         0         1
/BCS/2
ram guide
       110       111         0         4
/INTER/TYPE7/1
punch vs pad
         2         1         5         0
       1.0       0.0     0.050       0.0
/FUNCT/1
ramp
       0.0       0.0
       2.0       2.0
/CLOAD/1
press force
         1         Z         4   -4.0000
/END
