#RADIOSS STARTER
#--------------------------------------------------------------------------------------------------|
#- RADIOSS DECK WRITTEN BY HyperCrash
#HyperCrash 14.0 (64 bits) 
#Mon Dec 21 15:14:00 2015
#-
#--------------------------------------------------------------------------------------------------|
#- RADIOSS DECK WRITTEN BY HyperCrash
#HyperCrash 10.0 SA2 (64 bits)
#Tue Jul 20 11:23:07 2010
#-
#
#
#-
#- DATE	Tue Jul 20 11:23:07 2010
#--------------------------------------------------------------------------------------------------|
#---1----|----2----|----3----|----4----|----5----|----6----|----7----|----8----|----9----|---10----|
#-
#- DATE	Mon Dec 21 15:14:00 2015
#--------------------------------------------------------------------------------------------------|
#---1----|----2----|----3----|----4----|----5----|----6----|----7----|----8----|----9----|---10----|
/BEGIN
TEST7P                                                                          
       140         0
                   g                  mm                  ms
                   g                  mm                  ms
#---1----|----2----|----3----|----4----|----5----|----6----|----7----|----8----|----9----|---10----|
#-  1. CONTROL CARDS:
#---1----|----2----|----3----|----4----|----5----|----6----|----7----|----8----|----9----|---10----|
/TITLE
Billard_anglais
#---1----|----2----|----3----|----4----|----5----|----6----|----7----|----8----|----9----|---10----|
/ANALY
#    N2D3D             IPARITH      ISUB
         0                   0         0
#---1----|----2----|----3----|----4----|----5----|----6----|----7----|----8----|----9----|---10----|
/DEF_SHELL
#   ISHELL    ISMSTR    ITHICK     IPLAS   ISTRAIN                        I_SH3N     IDRIL
         0         0         0         0         0                             1         0
#---1----|----2----|----3----|----4----|----5----|----6----|----7----|----8----|----9----|---10----|
/DEF_SOLID
#  I_SOLID    ISMSTR             ISTRAIN                                  IFRAME
         0         0                   0                                       0
#---1----|----2----|----3----|----4----|----5----|----6----|----7----|----8----|----9----|---10----|
/IOFLAG
#     IPRI               IGTYP     IOUTP    IOUTYY   IROOTYY     IDROT
         5                   0         0         0         0         0
#---1----|----2----|----3----|----4----|----5----|----6----|----7----|----8----|----9----|---10----|
/SHFRA/V4
#---1----|----2----|----3----|----4----|----5----|----6----|----7----|----8----|----9----|---10----|
/SPMD
#   DOMDEC     Nproc              Dkword             Nthread
         0         0                   0                   1
#---1----|----2----|----3----|----4----|----5----|----6----|----7----|----8----|----9----|---10----|
#-  2. MATERIALS:
#---1----|----2----|----3----|----4----|----5----|----6----|----7----|----8----|----9----|---10----|
/MAT/ELAST/1
Balls_bakelit_phenolic_formaldehyde_resin
#              RHO_I
              .00137              .00137
#                  E                  nu
               10500                  .3
#---1----|----2----|----3----|----4----|----5----|----6----|----7----|----8----|----9----|---10----|
/MAT/ELAST/4
Plateau_ardoise
#              RHO_I
               .0028               .0028
#                  E                  nu
                6200                   0
#---1----|----2----|----3----|----4----|----5----|----6----|----7----|----8----|----9----|---10----|
#-  3. NODES:
#---1----|----2----|----3----|----4----|----5----|----6----|----7----|----8----|----9----|---10----|
/NODE
         1                   0                   0                   0
      1121                   0                  -3                   0
      1141                   2                  -3                   0
      1161                   4                  -3                   0
      1181                   6                  -3                   0
      2101                   8                  -3                   0
      2121                  12                  -3                   0
    152379         522.4521211        229.77666303          48.8183554
    152380        526.73904725                 225        47.021419875
    152381        532.56476405                 225        21.789663445
    152382        531.36983145        233.00750825            26.00002
    152383         525.8569254        244.30065795         35.51750085
    152384              512.63        249.82300735          31.1348922
    152385              512.63          219.946022          50.8527408
    152386        503.18299655        212.51240135          38.8557171
    152387              512.63        204.09161665         40.26577045
    152388        489.91130515       220.214784305         35.97763365
    152389              512.63        239.10904725          47.0214199
    152390        517.42238081         234.7945574          48.8269395
    152391        522.07700345        237.48759865          38.8557171
# ... 800 like lines cut
#---1----|----2----|----3----|----4----|----5----|----6----|----7----|----8----|----9----|---10----|
#-  4. BOUNDARY CONDITIONS:
#---1----|----2----|----3----|----4----|----5----|----6----|----7----|----8----|----9----|---10----|
/BCS/1
Fixing
#  Tra rot   skew_ID  grnod_ID
   111 111         0       115
/GRNOD/NODE/115
New GRNOD 114 _nodes_subsubgroup_
    157570    159079    159200    163107    163236    175607    175651    175795
#---1----|----2----|----3----|----4----|----5----|----6----|----7----|----8----|----9----|---10----|
#-  5. PARTS:
#---1----|----2----|----3----|----4----|----5----|----6----|----7----|----8----|----9----|---10----|
/PART/11
Ball_1
         1         1        10
#---1----|----2----|----3----|----4----|----5----|----6----|----7----|----8----|----9----|---10----|
# BRICK elements of /PART/11/Ball_1:
#---1----|----2----|----3----|----4----|----5----|----6----|----7----|----8----|----9----|---10----|
/BRICK/11
     24885    152570    152680    152561    152878    152568    152838    152527    152542
     24886    152855    152868    152867    152857    152875    152652    152804    152565
     24887    152459    152518    152486    152454    152452    152446    152431    152538
     24888    152849    152863    152529    152778    152803    152846    152891    152490
     24889    152635    152447    152504    152649    152470    152455    152607    152498
     24890    152462    152642    152448    152447    152382    152476    152425    152455
     24891    152852    152861    152868    152855    152876    152877    152652    152875
     24892    152486    152482    152439    152436    152431    152458    152471    152879
     24893    152481    152483    152783    152622    152539    152730    152777    152758
     24894    152642    152494    152892    152448    152476    152461    152432    152425
     24895    152783    152399    152400    152947    152777    152596    152904    152764
     24896    152915    152916    152743    152584    152905    152721    152599    152791
     24897    152399    152766    152929    152400    152596    152751    152722    152904
     24898    152506    152479    152412    152518    152508    152423    152453    152446
     24899    152447    152448    152426    152504    152455    152425    152763    152607
     24900    152739    152660    152913    152847    152736    152747    152740    152890
     24901    152448    152892    152627    152426    152425    152432    152888    152763
     24902    152860    152870    152415    152850    152578    152500    152586    152753
     24903    152865    152866    152587    152858    152796    152657    152654    152521
     24904    152400    152929    152916    152915    152904    152722    152721    152905
# ... 76 like lines cut
#---1----|----2----|----3----|----4----|----5----|----6----|----7----|----8----|----9----|---10----|
/PART/18
Plateau
         2         4         8
#---1----|----2----|----3----|----4----|----5----|----6----|----7----|----8----|----9----|---10----|
# BRICK elements of /PART/18/Plateau:
#---1----|----2----|----3----|----4----|----5----|----6----|----7----|----8----|----9----|---10----|
/BRICK/18
      3502    157570    159200    175795    163236    157470    159158    175776    163247
#---1----|----2----|----3----|----4----|----5----|----6----|----7----|----8----|----9----|---10----|
/PART/19
Ball_2
         1         1        10
#---1----|----2----|----3----|----4----|----5----|----6----|----7----|----8----|----9----|---10----|
# BRICK elements of /PART/19/Ball_2:
#---1----|----2----|----3----|----4----|----5----|----6----|----7----|----8----|----9----|---10----|
/BRICK/19
     24981    358342    358457    358467    358401    358356    358487    358461    358489
     24982    358331    358401    358399    358412    358395    358489    358440    358397
     24983    358367    358368    358307    358301    358375    358359    358385    358384
     24984    358456    358378    358453    358363    358300    358321    358491    358386
     24985    358379    358322    358485    358415    358409    358311    358347    358360
     24986    358462    358445    358472    358341    358428    358474    358323    358374
     24987    358310    358425    358394    358378    358380    358304    358345    358321
     24988    358333    358339    358305    358429    358344    358350    358314    358318
     24989    358322    358414    358488    358485    358311    358297    358376    358347
     24990    358444    358421    358349    358471    358470    358352    358424    358455
     24991    358389    358454    358450    358449    358436    358475    358484    358479
     24992    358354    358340    358338    358390    358417    358326    358327    358348
     24993    358393    358408    358425    358310    358377    358465    358304    358380
     24994    358361    358420    358407    358408    358351    358346    358388    358465
     24995    358333    358342    358401    358331    358344    358356    358489    358395
     24996    358446    358448    358437    358476    358383    358427    358435    358480
     24997    358448    358389    358449    358437    358427    358436    358479    358435
     24998    358433    358483    358447    358445    358468    358463    358460    358474
     24999    358378    358394    358452    358453    358321    358345    358296    358491
     25000    358446    358441    358490    358362    358383    358458    358410    358365
# ... 76 like lines cut
#---1----|----2----|----3----|----4----|----5----|----6----|----7----|----8----|----9----|---10----|
#-  6. SUBSETS:
#---1----|----2----|----3----|----4----|----5----|----6----|----7----|----8----|----9----|---10----|
/SUBSET/8
TABLE
#---1----|----2----|----3----|----4----|----5----|----6----|----7----|----8----|----9----|---10----|
/SUBSET/9
BILLARD
         8        10
#---1----|----2----|----3----|----4----|----5----|----6----|----7----|----8----|----9----|---10----|
/SUBSET/10
BALLS
#---1----|----2----|----3----|----4----|----5----|----6----|----7----|----8----|----9----|---10----|
#-  7. GEOMETRICAL SETS:
#---1----|----2----|----3----|----4----|----5----|----6----|----7----|----8----|----9----|---10----|
/PROP/SOLID/1
Shell-16nodes
#   Isolid    Ismstr               Icpre               Inpts    Itetra    Iframe                  dn
         0         0                   0                   0         0         0                   0
#                q_a                 q_b                   h            LAMBDA_V                MU_V
                   0                  .2                   0                   0                   0
#             dt_min   istrain      IHKT
                   0         0         0
#---1----|----2----|----3----|----4----|----5----|----6----|----7----|----8----|----9----|---10----|
/PROP/SOLID/2
Bricks
#   Isolid    Ismstr               Icpre               Inpts    Itetra    Iframe                  dn
         0         0                   0                   0         0         0                   0
#                q_a                 q_b                   h            LAMBDA_V                MU_V
                   0                   0                   0                   0                   0
#             dt_min   istrain      IHKT
                   0         0         0
#---1----|----2----|----3----|----4----|----5----|----6----|----7----|----8----|----9----|---10----|
#-  8. FUNCTIONS:
#---1----|----2----|----3----|----4----|----5----|----6----|----7----|----8----|----9----|---10----|
/FUNCT/1
New FUNCT 1
#                  X                   Y
                   0             -.00981                                                            
         10000000000             -.00981                                                            
#---1----|----2----|----3----|----4----|----5----|----6----|----7----|----8----|----9----|---10----|
#-  9. GRAVITIES:
#---1----|----2----|----3----|----4----|----5----|----6----|----7----|----8----|----9----|---10----|
/GRAV/1
z ; -9.81 ms-2
#funct_IDT       DIR   skew_ID sensor_ID  grnod_ID                      Ascale_x           Fscale_Y
         1         Z         0         0       108                             1                   1
/GRNOD/PART/108
New GRNOD 106 _parts_subsubgroup_
        11
#---1----|----2----|----3----|----4----|----5----|----6----|----7----|----8----|----9----|---10----|
#- 10. INTERFACES:
#---1----|----2----|----3----|----4----|----5----|----6----|----7----|----8----|----9----|---10----|
/INTER/TYPE7/1
New INTER 1
#  Slav_id   Mast_id      Istf      Ithe      Igap                Ibag      Idel     Icurv      Iadm
       151        13         0         0         0                   0         0         0         0
#          Fscalegap             GAP_MAX             Fpenmax
                   0                   0                   0
#              Stmin               Stmax          %mesh_size               dtmin  Irem_gap
                   0                   0                   0                   0         0
#              Stfac                Fric              Gapmin              Tstart               Tstop
                   0                   0                  .5                   0                   0
#      IBC                        Inacti                VisS                VisF              Bumult
       000                             0                   0                   0                   0
#    Ifric    Ifiltr               Xfreq     Iform   sens_ID
         0         0                   0         0         0
/GRNOD/NODE/151
New GRNOD 150 _nodes_subsubgroup_
    152395    152399    152400    152401    152412    152413    152415    152426    152427    152436
    152439    152447    152448    152454    152459    152462    152465    152472    152474    152475
    152478    152479    152481    152482    152483    152486    152487    152494    152504    152506
    152515    152518    152529    152547    152561    152566    152567    152570    152584    152585
    152587    152600    152601    152622    152624    152627    152635    152642    152649    152655
    152659    152660    152680    152692    152714    152739    152743    152746    152759    152765
    152766    152775    152778    152782    152783    152788    152800    152805    152819    152832
    152847    152849    152850    152852    152853    152855    152857    152858    152860    152861
    152863    152865    152866    152867    152868    152870    152878    152882    152892    152901
    152913    152914    152915    152916    152922    152929    152947    152948    358298    358299
    358301    358305    358307    358308    358309    358310    358315    358317    358322    358324
    358328    358329    358330    358331    358332    358333    358334    358335    358336    358337
    358338    358339    358340    358341    358342    358343    358349    358353    358354    358357
    358361    358362    358363    358364    358366    358367    358368    358371    358378    358379
    358381    358387    358389    358390    358393    358394    358396    358399    358400    358401
    358402    358404    358405    358407    358408    358412    358414    358415    358418    358420
    358421    358423    358425    358429    358433    358434    358437    358438    358441    358444
    358445    358446    358448    358449    358450    358452    358453    358454    358456    358457
    358459    358462    358466    358467    358471    358472    358476    358481    358482    358483
    358485    358486    358488    358490
/SURF/SEG/13
New SURF 12 _surf_segments_subsubgroup_
       193    157470    159158    175776    163247
       194    157570    163236    175795    159200
#---1----|----2----|----3----|----4----|----5----|----6----|----7----|----8----|----9----|---10----|
/INTER/TYPE7/2
New INTER 2
#  Slav_id   Mast_id      Istf      Ithe      Igap                Ibag      Idel     Icurv      Iadm
       139        16         0         0         0                   0         0         0         0
#          Fscalegap             GAP_MAX             Fpenmax
                   0                   0                   0
#              Stmin               Stmax          %mesh_size               dtmin  Irem_gap
                   0                   0                   0                   0         0
#              Stfac                Fric              Gapmin              Tstart               Tstop
                   0                   0                  .5                   0                   0
#      IBC                        Inacti                VisS                VisF              Bumult
       000                             0                   0                   0                   0
#    Ifric    Ifiltr               Xfreq     Iform   sens_ID
         0         0                   0         0         0
/GRNOD/PART/139
New GRNOD 137 _parts_subsubgroup_
        11
/SURF/SEG/16
New SURF 15 _surf_segments_subsubgroup_
       195    358296    358306    358302    358491
       196    358469    358411    358306    358296
       197    358321    358345    358296    358491
       198    358388    358469    358296    358345
       199    358318    358314    358297    358311
       200    358311    358297    358376    358347
       201    358314    358373    358376    358297
       202    358299    358298    358308    358486
       203    358366    358298    358299    358353
       204    358298    358363    358415    358308
       205    358453    358363    358298    358366
       206    358405    358353    358299    358362
       207    358362    358299    358486    358490
       208    358319    358380    358321    358300
       209    358347    358376    358319    358300
       210    358300    358321    358491    358386
       211    358360    358347    358300    358386
       212    358486    358308    358307    358301
       213    358367    358301    358307    358368
       214    358490    358486    358301    358367
# ... 172 like lines cut
#---1----|----2----|----3----|----4----|----5----|----6----|----7----|----8----|----9----|---10----|
/INTER/TYPE7/3
New INTER 3
#  Slav_id   Mast_id      Istf      Ithe      Igap                Ibag      Idel     Icurv      Iadm
       142        18         0         0         0                   0         0         0         0
#          Fscalegap             GAP_MAX             Fpenmax
                   0                   0                   0
#              Stmin               Stmax          %mesh_size               dtmin  Irem_gap
                   0                   0                   0                   0         0
#              Stfac                Fric              Gapmin              Tstart               Tstop
                   0                   0                  .5                   0                   0
#      IBC                        Inacti                VisS                VisF              Bumult
       000                             0                   0                   0                   0
#    Ifric    Ifiltr               Xfreq     Iform   sens_ID
         0         0                   0         0         0
/GRNOD/PART/142
New GRNOD 140 _parts_subsubgroup_
        19
/SURF/SEG/18
New SURF 17 _surf_segments_subsubgroup_
         1    152382    152476    152425    152455
         2    152803    152382    152455    152470
         3    152476    152382    152794    152751
         4    152382    152803    152490    152794
         5    152401    152465    152847    152395
         6    152882    152401    152395    152585
         7    152922    152585    152395    152714
         8    152714    152395    152847    152739
         9    152931    152887    152398    152716
        10    152398    152928    152926    152716
        11    152887    152844    152956    152398
        12    152956    152920    152928    152398
        13    152399    152400    152929    152766
        14    152783    152947    152400    152399
        15    152483    152783    152399    152494
        16    152494    152399    152766    152642
        17    152400    152915    152916    152929
        18    152947    152948    152915    152400
        19    152584    152782    152465    152401
        20    152743    152584    152401    152882
# ... 172 like lines cut
#---1----|----2----|----3----|----4----|----5----|----6----|----7----|----8----|----9----|---10----|
#- 11. SOLID GROUPS:
#---1----|----2----|----3----|----4----|----5----|----6----|----7----|----8----|----9----|---10----|
/GRBRIC/PART/3
New GRBRIC 1 _parts_subsubgroup_
        18
#---1----|----2----|----3----|----4----|----5----|----6----|----7----|----8----|----9----|---10----|
/GRBRIC/PART/6
New GRBRIC 4 _parts_subsubgroup_
        11
#---1----|----2----|----3----|----4----|----5----|----6----|----7----|----8----|----9----|---10----|
/GRBRIC/PART/9
New GRBRIC 7 _parts_subsubgroup_
        11
#---1----|----2----|----3----|----4----|----5----|----6----|----7----|----8----|----9----|---10----|
/GRBRIC/PART/12
New GRBRIC 10 _parts_subsubgroup_
        11
#---1----|----2----|----3----|----4----|----5----|----6----|----7----|----8----|----9----|---10----|
/GRBRIC/PART/15
New GRBRIC 13 _parts_subsubgroup_
        11
#---1----|----2----|----3----|----4----|----5----|----6----|----7----|----8----|----9----|---10----|
/GRBRIC/PART/18
New GRBRIC 16 _parts_subsubgroup_
        11
#---1----|----2----|----3----|----4----|----5----|----6----|----7----|----8----|----9----|---10----|
/GRBRIC/PART/21
New GRBRIC 19 _parts_subsubgroup_
        11
#---1----|----2----|----3----|----4----|----5----|----6----|----7----|----8----|----9----|---10----|
/GRBRIC/PART/24
New GRBRIC 22 _parts_subsubgroup_
        11
#---1----|----2----|----3----|----4----|----5----|----6----|----7----|----8----|----9----|---10----|
/GRBRIC/PART/27
New GRBRIC 25 _parts_subsubgroup_
        11
#---1----|----2----|----3----|----4----|----5----|----6----|----7----|----8----|----9----|---10----|
/GRBRIC/PART/30
New GRBRIC 28 _parts_subsubgroup_
        11
#---1----|----2----|----3----|----4----|----5----|----6----|----7----|----8----|----9----|---10----|
/GRBRIC/PART/33
New GRBRIC 31 _parts_subsubgroup_
        11
#---1----|----2----|----3----|----4----|----5----|----6----|----7----|----8----|----9----|---10----|
/GRBRIC/PART/36
New GRBRIC 34 _parts_subsubgroup_
        11
#---1----|----2----|----3----|----4----|----5----|----6----|----7----|----8----|----9----|---10----|
/GRBRIC/PART/39
New GRBRIC 37 _parts_subsubgroup_
        11
#---1----|----2----|----3----|----4----|----5----|----6----|----7----|----8----|----9----|---10----|
/GRBRIC/PART/42
New GRBRIC 40 _parts_subsubgroup_
        11
#---1----|----2----|----3----|----4----|----5----|----6----|----7----|----8----|----9----|---10----|
/GRBRIC/PART/45
New GRBRIC 43 _parts_subsubgroup_
        11
#---1----|----2----|----3----|----4----|----5----|----6----|----7----|----8----|----9----|---10----|
/GRBRIC/PART/48
New GRBRIC 46 _parts_subsubgroup_
        11
#---1----|----2----|----3----|----4----|----5----|----6----|----7----|----8----|----9----|---10----|
/GRBRIC/PART/54
New GRBRIC 52 _parts_subsubgroup_
        11
#---1----|----2----|----3----|----4----|----5----|----6----|----7----|----8----|----9----|---10----|
/GRBRIC/PART/57
New GRBRIC 55 _parts_subsubgroup_
        11
#---1----|----2----|----3----|----4----|----5----|----6----|----7----|----8----|----9----|---10----|
/GRBRIC/PART/60
New GRBRIC 58 _parts_subsubgroup_
        18
#---1----|----2----|----3----|----4----|----5----|----6----|----7----|----8----|----9----|---10----|
/GRBRIC/PART/66
New GRBRIC 64 _parts_subsubgroup_
        18
#---1----|----2----|----3----|----4----|----5----|----6----|----7----|----8----|----9----|---10----|
/GRBRIC/PART/69
New GRBRIC 67 _parts_subsubgroup_
        11
#---1----|----2----|----3----|----4----|----5----|----6----|----7----|----8----|----9----|---10----|
/GRBRIC/PART/78
New GRBRIC 76 _parts_subsubgroup_
        11
#---1----|----2----|----3----|----4----|----5----|----6----|----7----|----8----|----9----|---10----|
#- 12. NODE GROUPS:
#---1----|----2----|----3----|----4----|----5----|----6----|----7----|----8----|----9----|---10----|
/GRNOD/PART/3
New GRNOD 1 _parts_subsubgroup_
        11
#---1----|----2----|----3----|----4----|----5----|----6----|----7----|----8----|----9----|---10----|
/GRNOD/PART/51
New GRNOD 49 _parts_subsubgroup_
        11
#---1----|----2----|----3----|----4----|----5----|----6----|----7----|----8----|----9----|---10----|
/GRNOD/NODE/58
NULL
    159158    159200    163236    163247    175561    175607    175639    175651    175776    175795
#---1----|----2----|----3----|----4----|----5----|----6----|----7----|----8----|----9----|---10----|
/GRNOD/NODE/59
NULL
    157470    157570
#---1----|----2----|----3----|----4----|----5----|----6----|----7----|----8----|----9----|---10----|
/GRNOD/NODE/67
NULL
    157470    157570
#---1----|----2----|----3----|----4----|----5----|----6----|----7----|----8----|----9----|---10----|
/GRNOD/NODE/76
NULL
    159158    159200    175607    175639    175776    175795
#---1----|----2----|----3----|----4----|----5----|----6----|----7----|----8----|----9----|---10----|
/GRNOD/NODE/92
NULL
    159158    159200
#---1----|----2----|----3----|----4----|----5----|----6----|----7----|----8----|----9----|---10----|
/GRNOD/NODE/93
NULL
    159158    159200
#---1----|----2----|----3----|----4----|----5----|----6----|----7----|----8----|----9----|---10----|
/GRNOD/NODE/94
NULL
    159073    159079
#---1----|----2----|----3----|----4----|----5----|----6----|----7----|----8----|----9----|---10----|
/GRNOD/NODE/97
NULL
    157470    157570    159073    159079    159158    159200
#---1----|----2----|----3----|----4----|----5----|----6----|----7----|----8----|----9----|---10----|
/GRNOD/NODE/103
NULL
    157470    157570    163107    163236    163247    163256    175561    175651    175776    175795
#---1----|----2----|----3----|----4----|----5----|----6----|----7----|----8----|----9----|---10----|
/GRNOD/NODE/109
NULL
    163236    163247
#---1----|----2----|----3----|----4----|----5----|----6----|----7----|----8----|----9----|---10----|
/GRNOD/NODE/110
NULL
    157470    157570
#---1----|----2----|----3----|----4----|----5----|----6----|----7----|----8----|----9----|---10----|
/GRNOD/NODE/111
NULL
    159158    159200
#---1----|----2----|----3----|----4----|----5----|----6----|----7----|----8----|----9----|---10----|
/GRNOD/NODE/112
NULL
    175776    175795
#---1----|----2----|----3----|----4----|----5----|----6----|----7----|----8----|----9----|---10----|
/GRNOD/NODE/113
NULL
    157470    157570    159073    159079    159158    159200    163107    163236    163247    163256
    175561    175607    175639    175651    175776    175795
#---1----|----2----|----3----|----4----|----5----|----6----|----7----|----8----|----9----|---10----|
/GRNOD/PART/121
New GRNOD 119 _parts_subsubgroup_
        11
#---1----|----2----|----3----|----4----|----5----|----6----|----7----|----8----|----9----|---10----|
/GRNOD/PART/124
New GRNOD 122 _parts_subsubgroup_
        11
#---1----|----2----|----3----|----4----|----5----|----6----|----7----|----8----|----9----|---10----|
/GRNOD/PART/133
New GRNOD 131 _parts_subsubgroup_
        11
#---1----|----2----|----3----|----4----|----5----|----6----|----7----|----8----|----9----|---10----|
/GRNOD/PART/145
New GRNOD 143 _parts_subsubgroup_
        19
#---1----|----2----|----3----|----4----|----5----|----6----|----7----|----8----|----9----|---10----|
#- 13. SURFACES:
#---1----|----2----|----3----|----4----|----5----|----6----|----7----|----8----|----9----|---10----|
/SURF/SEG/1
New SURF 1
       193    157470    159158    175776    163247
       194    157570    163236    175795    159200
#---1----|----2----|----3----|----4----|----5----|----6----|----7----|----8----|----9----|---10----|
/SURF/SEG/4
New SURF 4
         1    152382    152476    152425    152455
         2    152803    152382    152455    152470
         3    152476    152382    152794    152751
         4    152382    152803    152490    152794
         5    152401    152465    152847    152395
         6    152882    152401    152395    152585
         7    152922    152585    152395    152714
         8    152714    152395    152847    152739
         9    152931    152887    152398    152716
        10    152398    152928    152926    152716
        11    152887    152844    152956    152398
        12    152956    152920    152928    152398
        13    152399    152400    152929    152766
        14    152783    152947    152400    152399
        15    152483    152783    152399    152494
        16    152494    152399    152766    152642
        17    152400    152915    152916    152929
        18    152947    152948    152915    152400
        19    152584    152782    152465    152401
        20    152743    152584    152401    152882
# ... 172 like lines cut
#---1----|----2----|----3----|----4----|----5----|----6----|----7----|----8----|----9----|---10----|
/SURF/SEG/11
New SURF 10 _surf_segments_subsubgroup_
         1    152382    152476    152425    152455
         2    152803    152382    152455    152470
         3    152476    152382    152794    152751
         4    152382    152803    152490    152794
         5    152401    152465    152847    152395
         6    152882    152401    152395    152585
         7    152922    152585    152395    152714
         8    152714    152395    152847    152739
         9    152931    152887    152398    152716
        10    152398    152928    152926    152716
        11    152887    152844    152956    152398
        12    152956    152920    152928    152398
        13    152399    152400    152929    152766
        14    152783    152947    152400    152399
        15    152483    152783    152399    152494
        16    152494    152399    152766    152642
        17    152400    152915    152916    152929
        18    152947    152948    152915    152400
        19    152584    152782    152465    152401
        20    152743    152584    152401    152882
# ... 172 like lines cut
#---1----|----2----|----3----|----4----|----5----|----6----|----7----|----8----|----9----|---10----|
/SURF/SEG/14
New SURF 14
       195    358296    358306    358302    358491
       196    358469    358411    358306    358296
       197    358321    358345    358296    358491
       198    358388    358469    358296    358345
       199    358318    358314    358297    358311
       200    358311    358297    358376    358347
       201    358314    358373    358376    358297
       202    358299    358298    358308    358486
       203    358366    358298    358299    358353
       204    358298    358363    358415    358308
       205    358453    358363    358298    358366
       206    358405    358353    358299    358362
       207    358362    358299    358486    358490
       208    358319    358380    358321    358300
       209    358347    358376    358319    358300
       210    358300    358321    358491    358386
       211    358360    358347    358300    358386
       212    358486    358308    358307    358301
       213    358367    358301    358307    358368
       214    358490    358486    358301    358367
# ... 172 like lines cut
#---1----|----2----|----3----|----4----|----5----|----6----|----7----|----8----|----9----|---10----|
#- 14. TIME HISTORIES:
#---1----|----2----|----3----|----4----|----5----|----6----|----7----|----8----|----9----|---10----|
/TH/PART/1
parts
#     var1      var2      var3      var4      var5      var6      var7      var8      var9     var10
DEF       HE        IE        KE        KERB      MASS      RIE       RKE       RKERB     XCG       
XMOM      XXMOM     YCG       YMOM      YYMOM     ZCG       ZMOM      ZZMOM     
#     Obj1      Obj2      Obj3      Obj4      Obj5      Obj6      Obj7      Obj8      Obj9     Obj10
        11        18        19
#---1----|----2----|----3----|----4----|----5----|----6----|----7----|----8----|----9----|---10----|
/END
#---1----|----2----|----3----|----4----|----5----|----6----|----7----|----8----|----9----|---10----|
