#RADIOSS STARTER
#--------------------------------------------------------------------------------------------------|
#- RADIOSS DECK WRITTEN BY HyperCrash
#HyperCrash 14.0 (64 bits) 
#Mon Dec 21 15:05:41 2015
#-
#--------------------------------------------------------------------------------------------------|
#- RADIOSS DECK WRITTEN BY HyperCrash
#HyperCrash 10.0 SA2 (64 bits)
#Thu Jul 22 18:36:45 2010
#-
#------------------------------------------------------------------------------|
#- RADIOSS DECK / GENERATED BY HELIOSS 2.2.h8
#-
#- DATE	Fri Jul 23 10:31:55 2004
#------------------------------------------------------------------------------|
#-
#- DATE	Thu Jul 22 18:36:45 2010
#--------------------------------------------------------------------------------------------------|
#---1----|----2----|----3----|----4----|----5----|----6----|----7----|----8----|----9----|---10----|
#-
#- DATE	Mon Dec 21 15:05:41 2015
#--------------------------------------------------------------------------------------------------|
#---1----|----2----|----3----|----4----|----5----|----6----|----7----|----8----|----9----|---10----|
/BEGIN
BOXBEAM                                                                         
       140         0
                   g                  mm                  ms
                   g                  mm                  ms
#---1----|----2----|----3----|----4----|----5----|----6----|----7----|----8----|----9----|---10----|
#-  1. CONTROL CARDS:
#---1----|----2----|----3----|----4----|----5----|----6----|----7----|----8----|----9----|---10----|
/TITLE
UNKNOW
#---1----|----2----|----3----|----4----|----5----|----6----|----7----|----8----|----9----|---10----|
/ANALY
#    N2D3D             IPARITH      ISUB
         0                   0         0
#---1----|----2----|----3----|----4----|----5----|----6----|----7----|----8----|----9----|---10----|
/DEF_SHELL
#   ISHELL    ISMSTR    ITHICK     IPLAS   ISTRAIN                        I_SH3N     IDRIL
         0         0         0         0         0                             1         0
#---1----|----2----|----3----|----4----|----5----|----6----|----7----|----8----|----9----|---10----|
/DEF_SOLID
#  I_SOLID    ISMSTR             ISTRAIN                                  IFRAME
         0         0                   0                                       0
#---1----|----2----|----3----|----4----|----5----|----6----|----7----|----8----|----9----|---10----|
/IOFLAG
#     IPRI               IGTYP     IOUTP    IOUTYY   IROOTYY     IDROT
         5                   0         0         0         0         0
#---1----|----2----|----3----|----4----|----5----|----6----|----7----|----8----|----9----|---10----|
/RANDOM
#       Random-Noise                Seed
               0.001                   0
#---1----|----2----|----3----|----4----|----5----|----6----|----7----|----8----|----9----|---10----|
/SHFRA/V4
#---1----|----2----|----3----|----4----|----5----|----6----|----7----|----8----|----9----|---10----|
/SPMD
#   DOMDEC     Nproc              Dkword             Nthread
         0         0                   0                   1
#---1----|----2----|----3----|----4----|----5----|----6----|----7----|----8----|----9----|---10----|
#-  2. MATERIALS:
#---1----|----2----|----3----|----4----|----5----|----6----|----7----|----8----|----9----|---10----|
/MAT/PLAS_JOHNS/2
STEEL
#              RHO_I
               .0078               .0078
#                  E                  Nu
              210000                  .3
#                  a                   b                   n           EPS_p_max            SIG_max0
                 206                 450                  .5                   0                   0
#                  c           EPS_DOT_0       ICC   Fsmooth               F_cut               Chard
                   0                   0         0         0                   0                   0
#                  m              T_melt              rhoC_p                 T_r
                   0                   0                   0                   0
#---1----|----2----|----3----|----4----|----5----|----6----|----7----|----8----|----9----|---10----|
#-  3. NODES:
#---1----|----2----|----3----|----4----|----5----|----6----|----7----|----8----|----9----|---10----|
/NODE
         1                   0          19.0499001               94.25
         2                   0          19.0499001                   0
         3          25.3999996          19.0499001               94.25
         4          25.3999996          19.0499001                   0
         5          12.6999998          19.0499001               94.25
         6                   0          19.0499001          15.7083333
         7                   0          19.0499001          31.4166667
         8                   0          19.0499001              47.125
         9                   0          19.0499001          62.8333333
        10                   0          19.0499001          78.5416667
        11          12.6999998          19.0499001                   0
        12          25.3999996          19.0499001          15.7083333
        13          25.3999996          19.0499001          31.4166667
        14          25.3999996          19.0499001              47.125
        15          25.3999996          19.0499001          62.8333333
        16          25.3999996          19.0499001          78.5416667
        17          12.6999998          19.0499001          15.7083333
        18          12.6999998          19.0499001          31.4166653
        19          12.6999998          19.0499001              47.125
        20          12.6999998          19.0499001          62.8333305
# ... 547 like lines cut
#---1----|----2----|----3----|----4----|----5----|----6----|----7----|----8----|----9----|---10----|
#-  4. BOUNDARY CONDITIONS:
#---1----|----2----|----3----|----4----|----5----|----6----|----7----|----8----|----9----|---10----|
/BCS/3
masternode
#  Tra rot   skew_ID  grnod_ID
   111 111         0        12
/GRNOD/NODE/12
masternode
       601
#---1----|----2----|----3----|----4----|----5----|----6----|----7----|----8----|----9----|---10----|
/BCS/4
symy
#  Tra rot   skew_ID  grnod_ID
   010 101         0         2
/GRNOD/NODE/2
symy
        24        33        34        35        36        37       324       369       370       371
       372       373       374       375       376       377       378       379       380       381
       382       383       384       385       386       387       388       389       390       391
       392       393       394       395       396       397
#---1----|----2----|----3----|----4----|----5----|----6----|----7----|----8----|----9----|---10----|
/BCS/4
impactor_bcs
#  Tra rot   skew_ID  grnod_ID
   110 111         0         3
/GRNOD/NODE/3
impactor_master
       603
#---1----|----2----|----3----|----4----|----5----|----6----|----7----|----8----|----9----|---10----|
/BCS/5
symx
#  Tra rot   skew_ID  grnod_ID
   100 011         0         1
/GRNOD/NODE/1
symx
         1         6         7         8         9        10        43        54        55        56
        57        58        59        60        61        62        63        64        65        66
        67        68        69        70        71        72        73        74        75        76
        77        78        79        80        81        82
#---1----|----2----|----3----|----4----|----5----|----6----|----7----|----8----|----9----|---10----|
#-  5. PARTS:
#---1----|----2----|----3----|----4----|----5----|----6----|----7----|----8----|----9----|---10----|
/PART/1
SHELL4N
         2         2         0
#---1----|----2----|----3----|----4----|----5----|----6----|----7----|----8----|----9----|---10----|
# SHELL elements of /PART/1/SHELL4N:
#---1----|----2----|----3----|----4----|----5----|----6----|----7----|----8----|----9----|---10----|
/SHELL/1
         1        11         2         6        17                                                 0
         2        17         6         7        18                                                 0
         3        18         7         8        19                                                 0
         4        19         8         9        20                                                 0
         5        20         9        10        21                                                 0
         6        21        10         1         5                                                 0
         7         4        11        17        12                                                 0
         8        12        17        18        13                                                 0
         9        13        18        19        14                                                 0
        10        14        19        20        15                                                 0
        11        15        20        21        16                                                 0
        12        16        21         5         3                                                 0
        13        32         4        12        38                                                 0
        14        38        12        13        39                                                 0
        15        39        13        14        40                                                 0
        16        40        14        15        41                                                 0
        17        41        15        16        42                                                 0
        18        42        16         3        26                                                 0
        19        25        32        38        33                                                 0
        20        33        38        39        34                                                 0
# ... 456 like lines cut
#---1----|----2----|----3----|----4----|----5----|----6----|----7----|----8----|----9----|---10----|
#-  6. GEOMETRICAL SETS:
#---1----|----2----|----3----|----4----|----5----|----6----|----7----|----8----|----9----|---10----|
/PROP/SHELL/2
SHELL
#   Ishell    Ismstr     Ish3n    Idrill
        24         0         0         0
#                 hm                  hf                  hr                  dm                  dn
                   0                   0                   0                   0                   0
#        N   Istrain               Thick              Ashear              Ithick     Iplas
         5         0                .914                   0                   1         1
#---1----|----2----|----3----|----4----|----5----|----6----|----7----|----8----|----9----|---10----|
#-  7. FUNCTIONS:
#---1----|----2----|----3----|----4----|----5----|----6----|----7----|----8----|----9----|---10----|
/FUNCT/1
cst
#                  X                   Y
              -10000                   1                                                            
                   0                   1                                                            
               10000                   1                                                            
#---1----|----2----|----3----|----4----|----5----|----6----|----7----|----8----|----9----|---10----|
#-  8. INTERFACES:
#---1----|----2----|----3----|----4----|----5----|----6----|----7----|----8----|----9----|---10----|
/INTER/TYPE11/1
edge to edge
#  Slav_id   Mast_id     I_stf               I_gap                          Idel
         1         1         0                   0                             0
#              STmin               STmax           MESH_SIZE               dtmin     Iform   Sens_Id
                   0                   0                   0                   0         0         0
#              STFAC                FRIC                 GAP              Tstart               Tstop
                   1                   0                   0                   0                   0
#     I_BC                        INACTI               VIS_S               VIS_F              BUMULT
       000                             0                   0                   0                   0
/LINE/EDGE/1
edges of boxbeam
         1
/SURF/PART/1
master surface
         1
#---1----|----2----|----3----|----4----|----5----|----6----|----7----|----8----|----9----|---10----|
/INTER/TYPE7/2
auto
#  Slav_id   Mast_id      Istf      Ithe      Igap                Ibag      Idel     Icurv      Iadm
         9         1         0         0         0                   0         0         0         0
#          Fscalegap             GAP_MAX             Fpenmax
                   0                   0                   0
#              Stmin               Stmax          %mesh_size               dtmin  Irem_gap
                   0                   0                   0                   0         0
#              Stfac                Fric              Gapmin              Tstart               Tstop
                   1                   0                   0                   0                   0
#      IBC                        Inacti                VisS                VisF              Bumult
       000                             0                   0                   0                   0
#    Ifric    Ifiltr               Xfreq     Iform   sens_ID
         0         0                   0         0         0
/GRNOD/SURF/9
slave surface
         1
#---1----|----2----|----3----|----4----|----5----|----6----|----7----|----8----|----9----|---10----|
#-  9. RIGID WALLS:
#---1----|----2----|----3----|----4----|----5----|----6----|----7----|----8----|----9----|---10----|
/RWALL/PLANE/1
Wall
#  node_ID     Slide grnod_ID1 grnod_ID2
       603         0         5         0
#           D_search                fric            Diameter                ffac       ifq
                   0                   0                   0                   0         0
#               Mass                VX_0                VY_0                VZ_0
                 100                   0                   0                   0
#               X_M1                Y_M1                Z_M1
                   0                   0                   0
/GRNOD/NODE/5
wall
         1         2         3         4         5         6         7         8         9        10
        11        12        13        14        15        16        17        18        19        20
        21        24        25        26        32        33        34        35        36        37
        38        39        40        41        42        43        45        47        48        49
        50        51        52        53        54        55        56        57        58        59
        60        61        62        63        64        65        66        67        68        69
        70        71        72        73        74        75        76        77        78        79
        80        81        82        90        91        92        93        94        95        96
        97        98        99       100       101       102       103       104       105       106
       107       108       109       110       111       112       113       114       115       116
       117       118       120       124       127       129       131       133       135       136
       137       139       140       141       142       143       144       145       146       147
       148       149       150       151       152       153       154       155       156       157
       158       159       160       161       162       163       164       165       166       167
       168       169       170       171       172       173       174       175       176       177
       178       179       180       181       182       183       184       185       186       187
       188       189       190       191       192       193       194       195       196       197
       198       199       200       201       202       203       204       205       206       207
       208       209       210       211       212       213       214       215       216       217
       218       219       220       221       222       223       224       225       226       227
# ... 33 like lines cut
#---1----|----2----|----3----|----4----|----5----|----6----|----7----|----8----|----9----|---10----|
#- 10. RIGID BODIES:
#---1----|----2----|----3----|----4----|----5----|----6----|----7----|----8----|----9----|---10----|
/RBODY/1
rigid_body
#     RBID     ISENS     NSKEW    ISPHER                MASS   Gnod_id     IKREM      ICOG   Surf_id
       601         0         0         0                   0         8         0         0         0
#                Jxx                 Jyy                 Jzz
                   0                   0                   0
#                Jxy                 Jyz                 Jxz
                   0                   0                   0
#Ioptoff
         0
/GRNOD/NODE/8
New GRNOD 8
         2         4        11        25        32
#---1----|----2----|----3----|----4----|----5----|----6----|----7----|----8----|----9----|---10----|
#- 11. IMPOSED VELOCITIES:
#---1----|----2----|----3----|----4----|----5----|----6----|----7----|----8----|----9----|---10----|
/IMPVEL/1
impactor
#funct_IDT       Dir   skew_ID sensor_ID  grnod_ID  frame_ID     Icoor
         1         Z         0         0         3         0         0
#           Ascale_x            Fscale_Y              Tstart               Tstop
                   1         -13.3000002                   0                   0
#---1----|----2----|----3----|----4----|----5----|----6----|----7----|----8----|----9----|---10----|
#- 12. TIME HISTORIES:
#---1----|----2----|----3----|----4----|----5----|----6----|----7----|----8----|----9----|---10----|
/TH/PART/1
Part selection for time history
#     var1      var2      var3      var4      var5      var6      var7      var8      var9     var10
DEF       
#     Obj1      Obj2      Obj3      Obj4      Obj5      Obj6      Obj7      Obj8      Obj9     Obj10
         1
#---1----|----2----|----3----|----4----|----5----|----6----|----7----|----8----|----9----|---10----|
/TH/NODE/2
Impactors displacement
#     var1      var2      var3      var4      var5      var6      var7      var8      var9     var10
D         
#    NODid     Iskew                                           NODname
       603         0 Impactor                                                                       
#---1----|----2----|----3----|----4----|----5----|----6----|----7----|----8----|----9----|---10----|
/TH/RBODY/3
Fixed rigid body
#     var1      var2      var3      var4      var5      var6      var7      var8      var9     var10
F         
#     Obj1      Obj2      Obj3      Obj4      Obj5      Obj6      Obj7      Obj8      Obj9     Obj10
         1
#---1----|----2----|----3----|----4----|----5----|----6----|----7----|----8----|----9----|---10----|
/TH/RWALL/4
Rigid wall
#     var1      var2      var3      var4      var5      var6      var7      var8      var9     var10
FN        
#     Obj1      Obj2      Obj3      Obj4      Obj5      Obj6      Obj7      Obj8      Obj9     Obj10
         1
#---1----|----2----|----3----|----4----|----5----|----6----|----7----|----8----|----9----|---10----|
/TH/INTER/5
type 7
#     var1      var2      var3      var4      var5      var6      var7      var8      var9     var10
DEF       
#     Obj1      Obj2      Obj3      Obj4      Obj5      Obj6      Obj7      Obj8      Obj9     Obj10
         2
#---1----|----2----|----3----|----4----|----5----|----6----|----7----|----8----|----9----|---10----|
/TH/INTER/6
type 11
#     var1      var2      var3      var4      var5      var6      var7      var8      var9     var10
DEF       
#     Obj1      Obj2      Obj3      Obj4      Obj5      Obj6      Obj7      Obj8      Obj9     Obj10
         1
#---1----|----2----|----3----|----4----|----5----|----6----|----7----|----8----|----9----|---10----|
/END
#---1----|----2----|----3----|----4----|----5----|----6----|----7----|----8----|----9----|---10----|
