#RADIOSS STARTER
##========================================================================================
##
## Radioss Input Deck Generated by HyperMesh Version  : 2019.0.0.52
## Generated using HyperMesh-Radioss Template Version : 2019.0.0.52
## Date: 01-31-2019   Time: 13:27:10
##
##========================================================================================
##
##--------------------------------------------------------------------------------------------------
#--------------------------------------------------------------------------------------------------|
#- RADIOSS DECK WRITTEN BY HyperCrash
#HyperCrash 14.0 (64 bits) 
#Mon Dec 21 15:02:54 2015
#-
#--------------------------------------------------------------------------------------------------|
#- RADIOSS DECK WRITTEN BY HyperCrash
#HyperCrash 13.0 (64 bits)
#Wed Aug 12 22:29:48 2015
#-
#
#
#-
#- DATE	Wed Aug 12 22:29:48 2015
#--------------------------------------------------------------------------------------------------|
#---1----|----2----|----3----|----4----|----5----|----6----|----7----|----8----|----9----|---10----|
#-
#- DATE	Mon Dec 21 15:02:54 2015
#--------------------------------------------------------------------------------------------------|
#---1----|----2----|----3----|----4----|----5----|----6----|----7----|----8----|----9----|---10----|
##
/BEGIN
BAT_CIR
      2018         0
                   g                  mm                  ms
                   g                  mm                  ms
##
##--------------------------------------------------------------------------------------------------
## Title
##--------------------------------------------------------------------------------------------------
/TITLE
BAT_CIR                                                                                             
##--------------------------------------------------------------------------------------------------
## SPMD Computation
##--------------------------------------------------------------------------------------------------
/SPMD
         0         0                   0                   0
##--------------------------------------------------------------------------------------------------
## Input-Output Flags
##--------------------------------------------------------------------------------------------------
/IOFLAG
         1                   0         0         0         0         0                              
##--------------------------------------------------------------------------------------------------
## Analysis Flags
##--------------------------------------------------------------------------------------------------
/ANALY
         0                   0         0
##--------------------------------------------------------------------------------------------------
## Solid Default Values Initialization
##--------------------------------------------------------------------------------------------------
/DEF_SOLID
         0         0                   0                              
##--------------------------------------------------------------------------------------------------
## Shell Default Values Initialization
##--------------------------------------------------------------------------------------------------
/DEF_SHELL
         0         0         0         0         0                             0         0
##--------------------------------------------------------------------------------------------------
## Material Law No 1. VOID
##--------------------------------------------------------------------------------------------------
/MAT/VOID/12
void                                                                                                
##--------------------------------------------------------------------------------------------------
## Material Law No 1. ELASTIC
##--------------------------------------------------------------------------------------------------
#---1----|----2----|----3----|----4----|----5----|----6----|----7----|----8----|----9----|---10----|
#-  2. MATERIALS:
#---1----|----2----|----3----|----4----|----5----|----6----|----7----|----8----|----9----|---10----|
#                  E                  nu
/MAT/ELAST/1
filet                                                                                               
#              RHO_I
1.00000000000000E-04                 0.0
                20.0                 0.0
##--------------------------------------------------------------------------------------------------
## Material Law No 19. ELASTIC ORTHOTROPIC
##--------------------------------------------------------------------------------------------------
#---1----|----2----|----3----|----4----|----5----|----6----|----7----|----8----|----9----|---10----|
#                E11                 E22                NU12
#                G12                 G23                 G31
#                R_E                              ZEROSTRESS          ISURF_PORO   SENS_ID
/MAT/FABRI/10
leather                                                                                             
#              RHO_I               RHO_O
             0.00201                 0.0
             20000.0             20000.0                0.29
             10000.0             10000.0             10000.0
1.00000000000000E-03                                     0.0                 0.0         0
##--------------------------------------------------------------------------------------------------
##  Airbag Gas
##--------------------------------------------------------------------------------------------------
/MAT/GAS/MASS/1001
AIR, g, mm, ms                                                                                      
            30.09204
               926.0                 0.0                 0.0                 0.0                 0.0
                 0.0
##--------------------------------------------------------------------------------------------------
## NODES
##--------------------------------------------------------------------------------------------------
/NODE
         2    -2531.4457122723     363.61557213156     215.39869244385
         3    -2566.9223331848     351.44764915793     237.74735195923
         9    -2610.5169338623       365.976289905      312.1468117981
        11    -2601.5961117188     377.77398887961     238.29179318237
        14    -2623.8978084961     384.49532905905     275.05565197754
        19    -2601.7466473023     414.60262886374     215.30414898682
        20    -2624.2728313843     444.54703441947     237.71327908325
        26    -2623.9490551392     490.37057701438     312.22812588501
        30    -2609.9488109985     485.67145363181     238.33497174072
        31    -2610.4513286987     508.88102165549     275.17526371765
        36    -2574.9721722046     497.24335304587     215.35261853027
        37    -2553.4261993805     527.87407127707     237.84457714844
        43    -2509.7942394653      541.6078435549     312.39873249817
        44    -2487.9981655518     534.54120842307     275.33768589783
        45    -2509.9066757599     526.91571251242      238.5159524231
        53    -2488.0932888428     497.24645439475     215.52705700684
        54    -2452.3143810669     486.22319618552     237.98615963745
        60    -2425.8363918701     448.84178463309     312.47889836121
        64    -2439.7270397583     444.54704538672     238.58530361939
        65    -2425.7817501465     426.00951782553     275.40367443848
# ... 8588 like lines cut
##--------------------------------------------------------------------------------------------------
## Boundary Conditions
##--------------------------------------------------------------------------------------------------
#---1----|----2----|----3----|----4----|----5----|----6----|----7----|----8----|----9----|---10----|
#-  4. BOUNDARY CONDITIONS:
#---1----|----2----|----3----|----4----|----5----|----6----|----7----|----8----|----9----|---10----|
##HWCOLOR loadcollectors 3 49
/BCS/3
BCS 1                                                                                               
   001 000         0         8
/GRNOD/NODE/8
bcs_filet                                                                                           
    133675    133676    133679    133680    136820    136821    136822    136823    136824    136825
    136826    136827    136828    136829    136830    136831    136832    136833    136834    136835
    136836    136837    136838    136839    136840    136841    136842    136843    136844    136845
    136846    136847    136848    136849    136850    136851    136852    136853    136854    136855
    136856    136857    136858    136859    136860    136861    136862    136863    136864    136865
    136866    136867    136868    136869    136870    136871    136872    136873    136874    136875
    136876    136877    136878    136883    136884    138271    138272    138273    138274    138275
    138276    138277    138278    138279    138280    138281    138284    138312    138313    138314
    139670    139671    139672    139673    139674    139913    139915    139942    139943    139944
    139945    139946    139947    140003    140026
#---1----|----2----|----3----|----4----|----5----|----6----|----7----|----8----|----9----|---10----|
##HWCOLOR loadcollectors 4 49
/BCS/4
BCS 2                                                                                               
   111 000         0        20
/GRNOD/NODE/20
bcs_filet                                                                                           
    138695    138850    139258    139663    139785    139956
#---1----|----2----|----3----|----4----|----5----|----6----|----7----|----8----|----9----|---10----|
##HWCOLOR loadcollectors 5 49
/BCS/5
BCS 3                                                                                               
   111 000         0        18
/GRNOD/NODE/18
bcs_filet                                                                                           
    133674    133681    137137    137141    137212    137224    137235    137241
#---1----|----2----|----3----|----4----|----5----|----6----|----7----|----8----|----9----|---10----|
##HWCOLOR loadcollectors 6 49
/BCS/6
BCS 4                                                                                               
   111 000         0        34
/GRNOD/NODE/34
bcs_filet                                                                                           
    133677    133678
##--------------------------------------------------------------------------------------------------
## Frames - Fix
##--------------------------------------------------------------------------------------------------
#---1----|----2----|----3----|----4----|----5----|----6----|----7----|----8----|----9----|---10----|
#- 10. INITIAL VELOCITIES:
#---1----|----2----|----3----|----4----|----5----|----6----|----7----|----8----|----9----|---10----|
#                 X1                  Y1                  Z1   = Y'
#                 X2                  Y2                  Z2   = Z'
/FRAME/FIX/2
New FRAME 2                                                                                         
#                 OX                  OY                  OZ
    -2531.6000309924     437.45037007732     293.79002359428
                 1.0                 0.0                 0.0
                 0.0  -0.977802413638385  -0.209529090779654
##--------------------------------------------------------------------------------------------------
## Frames - Mov
##--------------------------------------------------------------------------------------------------
##--------------------------------------------------------------------------------------------------
## Triangular Shell Elements
##--------------------------------------------------------------------------------------------------
/SH3N/122
       909        36      1724       956                                                         0.0
       910      1724      1725      1750                                                         0.0
       911      1725      1726      1755                                                         0.0
       912      1726      1727      1758                                                         0.0
       913      1727       144       955                                                         0.0
       914        85      1887       907                                                         0.0
       915      1887      1886      1918                                                         0.0
       916      1886      1885      1915                                                         0.0
       917      1885      1884      1910                                                         0.0
       918      1884        83       908                                                         0.0
       989      2119       161       875                                                         0.0
       990      2118      2119      2151                                                         0.0
       991      2117      2118      2149                                                         0.0
       992      2116      2117      2145                                                         0.0
       993        19      2116       876                                                         0.0
      1030      2136       151       812                                                         0.0
      1031      2137      2136      2142                                                         0.0
      1032      2138      2137      2147                                                         0.0
      1033      2139      2138      2150                                                         0.0
      1034       153      2139       784                                                         0.0
# ... 40 like lines cut
/SH3N/126
     11933    141041    141037    141044                                                            
     11935    141047    141043    141040                                                            
     11993    141095    141106    141084                                                            
     12024    141122    141110    141132                                                            
     12026    141118    141127    141135                                                            
     12056    141154    141163    141137                                                            
     12080    141174    141161    141180                                                            
     12087    141179    141171    141192                                                            
     12115    141214    141203    141193                                                            
     12120    140106    140951    140950                                                            
     12122    141196    141209    141220                                                            
     12124    141218    141208    141200                                                            
     12125    141219    141211    141199                                                            
     12154    141232    141220    141241                                                            
     12169    141243    141234    141256                                                            
     12178    141262    141250    141240                                                            
     12180    141258    141246    141263                                                            
     12192    141267    141263    141248                                                            
     12195    141264    141254    141269                                                            
     12197    141275    141267    141253                                                            
# ... 228 like lines cut
##--------------------------------------------------------------------------------------------------
## Quad Shell Elements
##--------------------------------------------------------------------------------------------------
/SHELL/124
         1      2191      2202      2182      2181                                               0.0
         2      2203      2204      2193      2198                                               0.0
         3      2205      2206      2204      2203                                               0.0
         4      2206      2207      2208      2204                                               0.0
         5      2207      2209      2210      2208                                               0.0
         6      2184      2185      2212      2211                                               0.0
         7      2211      2212      2213      2214                                               0.0
         8      2212      2218      2215      2213                                               0.0
         9      2218      2217      2216      2215                                               0.0
        10      2208      2210      2217      2218                                               0.0
        11      2214      2213      2232      2231                                               0.0
        12      2231      2232      2233      2234                                               0.0
        13      2232      2227      2228      2233                                               0.0
        14      2227      2230      2229      2228                                               0.0
        15      2219      2220      2206      2205                                               0.0
        16      2222      2221      2220      2219                                               0.0
        17      2221      2223      2226      2220                                               0.0
        18      2223      2224      2225      2226                                               0.0
        19      2226      2225      2230      2227                                               0.0
/SHELL/125
        20      2239      2240      2237      2238                                               0.0
/SHELL/121
       370      1397       771       170       791                                               0.0
       371       771      1397      1396       770                                               0.0
       372       770      1396      1395       769                                               0.0
       373       769      1395      1394       768                                               0.0
       374       768      1394       780       157                                               0.0
       375       791       790      1393      1397                                               0.0
       376      1397      1393      1392      1396                                               0.0
       377      1396      1392      1391      1395                                               0.0
       378      1395      1391      1390      1394                                               0.0
       379      1394      1390       781       780                                               0.0
       380       790       789      1389      1393                                               0.0
       381      1393      1389      1388      1392                                               0.0
       382      1392      1388      1387      1391                                               0.0
       383      1391      1387      1386      1390                                               0.0
       384      1390      1386       782       781                                               0.0
       385       789       788      1385      1389                                               0.0
       386      1389      1385      1384      1388                                               0.0
       387      1388      1384      1383      1387                                               0.0
       388      1387      1383      1382      1386                                               0.0
       389      1386      1382       783       782                                               0.0
# ... 480 like lines cut
/SHELL/122
       874        31       948      1711       931                                               0.0
       875       931      1711      1710       930                                               0.0
       876       930      1710      1709       929                                               0.0
       877       929      1709      1708       928                                               0.0
       878       928      1708       920        30                                               0.0
       879       948       949      1715      1711                                               0.0
       880      1711      1715      1714      1710                                               0.0
       881      1710      1714      1713      1709                                               0.0
       882      1709      1713      1712      1708                                               0.0
       883      1708      1712       921       920                                               0.0
       884       949       950      1719      1715                                               0.0
       885      1715      1719      1718      1714                                               0.0
       886      1714      1718      1717      1713                                               0.0
       887      1713      1717      1716      1712                                               0.0
       888      1712      1716       922       921                                               0.0
       889       950       951      1723      1719                                               0.0
       890      1719      1723      1722      1718                                               0.0
       891      1718      1722      1721      1717                                               0.0
       892      1717      1721      1720      1716                                               0.0
       893      1716      1720       923       922                                               0.0
# ... 260 like lines cut
/SHELL/121
      1195       191       844      1325       843                                               0.0
      1196       843      1325      1324       842                                               0.0
      1197       842      1324      1323       841                                               0.0
      1198       841      1323      1322       840                                               0.0
      1199       840      1322       836        94                                               0.0
      1200       844       845      1321      1325                                               0.0
      1201      1325      1321      1320      1324                                               0.0
      1202      1324      1320      1319      1323                                               0.0
      1203      1323      1319      1318      1322                                               0.0
      1204      1322      1318       837       836                                               0.0
      1205       845       846      1317      1321                                               0.0
      1206      1321      1317      1316      1320                                               0.0
      1207      1320      1316      1315      1319                                               0.0
      1208      1319      1315      1314      1318                                               0.0
      1209      1318      1314       838       837                                               0.0
      1210       846       847      1313      1317                                               0.0
      1211      1317      1313      1312      1316                                               0.0
      1212      1316      1312      1311      1315                                               0.0
      1213      1315      1311      1310      1314                                               0.0
      1214      1314      1310       839       838                                               0.0
# ... 80 like lines cut
/SHELL/122
      1296        94      1052      1213       840                                               0.0
      1297       840      1213      1212       841                                               0.0
      1298       841      1212      1211       842                                               0.0
      1299       842      1211      1210       843                                               0.0
      1300       843      1210       848       191                                               0.0
      1301      1052      1053      1209      1213                                               0.0
      1302      1213      1209      1208      1212                                               0.0
      1303      1212      1208      1207      1211                                               0.0
      1304      1211      1207      1206      1210                                               0.0
      1305      1210      1206       849       848                                               0.0
      1306      1053      1054      1205      1209                                               0.0
      1307      1209      1205      1204      1208                                               0.0
      1308      1208      1204      1203      1207                                               0.0
      1309      1207      1203      1202      1206                                               0.0
      1310      1206      1202       850       849                                               0.0
      1311      1054      1055      1201      1205                                               0.0
      1312      1205      1201      1200      1204                                               0.0
      1313      1204      1200      1199      1203                                               0.0
      1314      1203      1199      1198      1202                                               0.0
      1315      1202      1198       851       850                                               0.0
# ... 15 like lines cut
/SHELL/121
      1336        87      1064      1959      1007                                               0.0
      1337      1007      1959      1958      1006                                               0.0
      1338      1006      1958      1957      1005                                               0.0
      1339      1005      1957      1956      1004                                               0.0
      1340      1004      1956       903        85                                               0.0
      1341      1064      1065      1963      1959                                               0.0
      1342      1959      1963      1962      1958                                               0.0
      1343      1958      1962      1961      1957                                               0.0
      1344      1957      1961      1960      1956                                               0.0
      1345      1956      1960       902       903                                               0.0
      1346      1065      1066      1967      1963                                               0.0
      1347      1963      1967      1966      1962                                               0.0
      1348      1962      1966      1965      1961                                               0.0
      1349      1961      1965      1964      1960                                               0.0
      1350      1960      1964       901       902                                               0.0
      1351      1066      1067      1971      1967                                               0.0
      1352      1967      1971      1970      1966                                               0.0
      1353      1966      1970      1969      1965                                               0.0
      1354      1965      1969      1968      1964                                               0.0
      1355      1964      1968       900       901                                               0.0
# ... 30 like lines cut
/SHELL/122
      1386        65      1080      1417      1087                                               0.0
      1387      1087      1417      1416      1086                                               0.0
      1388      1086      1416      1415      1085                                               0.0
      1389      1085      1415      1414      1084                                               0.0
      1390      1084      1414      1000        64                                               0.0
      1391      1080      1081      1421      1417                                               0.0
      1392      1417      1421      1420      1416                                               0.0
      1393      1416      1420      1419      1415                                               0.0
      1394      1415      1419      1418      1414                                               0.0
      1395      1414      1418      1001      1000                                               0.0
      1396      1081      1082      1425      1421                                               0.0
      1397      1421      1425      1424      1420                                               0.0
      1398      1420      1424      1423      1419                                               0.0
      1399      1419      1423      1422      1418                                               0.0
      1400      1418      1422      1002      1001                                               0.0
      1401      1082      1083      1429      1425                                               0.0
      1402      1425      1429      1428      1424                                               0.0
      1403      1424      1428      1427      1423                                               0.0
      1404      1423      1427      1426      1422                                               0.0
      1405      1422      1426      1003      1002                                               0.0
# ... 15 like lines cut
/SHELL/121
      1427        53       992      1923       968                                               0.0
      1428       968      1923      1922       969                                               0.0
      1429       969      1922      1921       970                                               0.0
      1430       970      1921      1920       971                                               0.0
      1431       971      1920       904        84                                               0.0
      1432       992       993      1927      1923                                               0.0
      1433      1923      1927      1926      1922                                               0.0
      1434      1922      1926      1925      1921                                               0.0
      1435      1921      1925      1924      1920                                               0.0
      1436      1920      1924       905       904                                               0.0
      1437       993       994      1931      1927                                               0.0
      1438      1927      1931      1930      1926                                               0.0
      1439      1926      1930      1929      1925                                               0.0
      1440      1925      1929      1928      1924                                               0.0
      1441      1924      1928       906       905                                               0.0
      1442       994       995      1935      1931                                               0.0
      1443      1931      1935      1934      1930                                               0.0
      1444      1930      1934      1933      1929                                               0.0
      1445      1929      1933      1932      1928                                               0.0
      1446      1928      1932       907       906                                               0.0
# ... 330 like lines cut
/SHELL/122
      1778        44       984      1731       980                                               0.0
      1779       980      1731      1730       981                                               0.0
      1780       981      1730      1729       982                                               0.0
      1781       982      1729      1728       983                                               0.0
      1782       983      1728       964        45                                               0.0
      1784       984       985      1735      1731                                               0.0
      1785      1731      1735      1734      1730                                               0.0
      1786      1730      1734      1733      1729                                               0.0
      1787      1729      1733      1732      1728                                               0.0
      1788      1728      1732       965       964                                               0.0
      1790       985       986      1739      1735                                               0.0
      1791      1735      1739      1738      1734                                               0.0
      1792      1734      1738      1737      1733                                               0.0
      1793      1733      1737      1736      1732                                               0.0
      1794      1732      1736       966       965                                               0.0
      1795       986       987      1743      1739                                               0.0
      1796      1739      1743      1742      1738                                               0.0
      1797      1738      1742      1741      1737                                               0.0
      1798      1737      1741      1740      1736                                               0.0
      1799      1736      1740       967       966                                               0.0
# ... 50 like lines cut
/SHELL/5
      1860    133677    133742    133873    133762                                               0.0
      1861    133742    133741    133872    133873                                               0.0
      1862    133741    133740    133871    133872                                               0.0
      1863    133740    133739    133870    133871                                               0.0
      1864    133739    133738    133869    133870                                               0.0
      1865    133738    133737    133868    133869                                               0.0
      1866    133737    133736    133867    133868                                               0.0
      1867    133736    133735    133866    133867                                               0.0
      1868    133735    133734    133865    133866                                               0.0
      1869    133734    133733    133864    133865                                               0.0
      1870    133733    133732    133863    133864                                               0.0
      1871    133732    133731    133862    133863                                               0.0
      1872    133731    133730    133861    133862                                               0.0
      1873    133730    133729    133860    133861                                               0.0
      1874    133729    133728    133859    133860                                               0.0
      1875    133728    133727    133858    133859                                               0.0
      1876    133727    133726    133857    133858                                               0.0
      1877    133726    133725    133856    133857                                               0.0
      1878    133725    133724    133855    133856                                               0.0
      1879    133724    133723    133854    133855                                               0.0
# ... 2946 like lines cut
/SHELL/126
      7125     97461     97819     97704     97809                                                  
      7126     97809     97704     97425     97678                                                  
      7133     97807     97795     97470     97685                                                  
      7134     97685     97470     97778     97430                                                  
      7138     97759     97784     97740     97833                                                  
      7150     97677     97416     97391     97712                                                  
      7151     97712     97391     97731     97486                                                  
      7154     97508     97676     97520     97737                                                  
      7155     97737     97520     97474     97670                                                  
      7158     97531     97710     97379     97656                                                  
      7159     97656     97379     97458     97539                                                  
      7163     97879     97619     97329     97343                                                  
      7164     97343     97329     97680     97489                                                  
      7204     97430     97778     97395     97821                                                  
      7211     97834     97408     97526     97657                                                  
      7217     97762     97733     97609     97536                                                  
      7218     97536     97609     97416     97677                                                  
      7234     97833     97740     97723     97500                                                  
      7235     97500     97723     97487     97573                                                  
      7239     97347     97668     97311     97653                                                  
# ... 3324 like lines cut
##--------------------------------------------------------------------------------------------------
## 2 Noded Spring Elements
##--------------------------------------------------------------------------------------------------
/SPRING/127
         1        14      2153
/SPRING/128
         2      1074      2153
/SPRING/131
         5      2126      2153
/SPRING/132
         6      1544      2153
##--------------------------------------------------------------------------------------------------
## Void Property Set (pid 0)
##--------------------------------------------------------------------------------------------------
/PROP/VOID/12
void                                                                                                
##--------------------------------------------------------------------------------------------------
## Shell Property Set (pid 1)
##--------------------------------------------------------------------------------------------------
#        N   Istrain               Thick              Ashear              Ithick     Iplas
/PROP/SHELL/1
filet                                                                                               
#   Ishell    Ismstr     Ish3n    Idrill
        24         0         0         0
                 0.0                 0.0                 0.0                 0.0                 0.0
         0         0                 1.0                 0.0                   0         0
##--------------------------------------------------------------------------------------------------
## Spring Property Set (pid 4)
##--------------------------------------------------------------------------------------------------
#---1----|----2----|----3----|----4----|----5----|----6----|----7----|----8----|----9----|---10----|
#                  K                   C                   A                   B                   D
#funct_ID1         H funct_ID2 funct_ID3 funct_ID4                     delta_min           delta_max
#            Fscale1                   E             Ascalex             HSCALE4
/PROP/SPRING/13
New PROP 13                                                                                         
#                  M                               sensor_ID    Isflag     Ileng
                 1.0                                       0         0         0
             10000.0                 0.0                 0.0                 0.0                 0.0
         0         0         0         0         0                           0.0                 0.0
                 0.0                 0.0                 0.0                 0.0
##--------------------------------------------------------------------------------------------------
## Orthotopic Shell Property (pid 9)
##--------------------------------------------------------------------------------------------------
#---1----|----2----|----3----|----4----|----5----|----6----|----7----|----8----|----9----|---10----|
#                 hm                  hf                  hr                  dm                  dn
#        N   Istrain               Thick              Ashear              Ithick     Iplas
#                 Vx                  Vy                  Vz                 Phi
/PROP/SH_ORTH/10
Thickness: 1.5mm                                                                                    
#   Ishell    Ismstr     Ish3n    Idrill
         0         0         0         0
                0.01                0.01                0.01                 0.0                 0.0
         1         0                 1.5                 0.0                   0         0
                 0.0                 0.0                 0.0                 0.0
##--------------------------------------------------------------------------------------------------
## Type1 Injector
##--------------------------------------------------------------------------------------------------
/PROP/INJECT1/1001
Injector                                                                                            
#   Ngases     Iflow            Ascale_T
         1         0                 0.0
      1001         2         3                           1.0                 1.0
##--------------------------------------------------------------------------------------------------
## Functions
##--------------------------------------------------------------------------------------------------
#---1----|----2----|----3----|----4----|----5----|----6----|----7----|----8----|----9----|---10----|
#   mat_ID funct_IDM funct_IDT                      Fscale_M            Fscale_T
#---1----|----2----|----3----|----4----|----5----|----6----|----7----|----8----|----9----|---10----|
#-  9. FUNCTIONS:
#---1----|----2----|----3----|----4----|----5----|----6----|----7----|----8----|----9----|---10----|
##HWCOLOR curves 1 4
/FUNCT/1
Gravity                                                                                             
#                  X                   Y
                 0.0               -9.81
              1000.0               -9.81
#---1----|----2----|----3----|----4----|----5----|----6----|----7----|----8----|----9----|---10----|
##HWCOLOR curves 2 5
/FUNCT/2
Injected gas mass                                                                                   
#                  X                   Y
                 0.0                 0.0
                 1.0                5.35
             10000.0                5.35
#---1----|----2----|----3----|----4----|----5----|----6----|----7----|----8----|----9----|---10----|
##HWCOLOR curves 3 3
/FUNCT/3
Injected gas temperature                                                                            
#                  X                   Y
                 0.0               253.0
             10000.0               253.0
##--------------------------------------------------------------------------------------------------
## Initial Velocities around the Axis
##--------------------------------------------------------------------------------------------------
##HWCOLOR loadcollectors 2 8
/INIVEL/AXIS/2
New INIVEL 2                                                                                        
         Z         2        72
            1.249906           25.067105            4.785515          0.14317821
##--------------------------------------------------------------------------------------------------
## Sensors
##--------------------------------------------------------------------------------------------------
#---1----|----2----|----3----|----4----|----5----|----6----|----7----|----8----|----9----|---10----|
#- 11. SENSORS:
#---1----|----2----|----3----|----4----|----5----|----6----|----7----|----8----|----9----|---10----|
/SENSOR/TIME/1
airbag sensor                                                                                       
             99.5009
##--------------------------------------------------------------------------------------------------
## Gravity Loads
##--------------------------------------------------------------------------------------------------
#---1----|----2----|----3----|----4----|----5----|----6----|----7----|----8----|----9----|---10----|
#- 12. GRAVITIES:
#---1----|----2----|----3----|----4----|----5----|----6----|----7----|----8----|----9----|---10----|
##HWCOLOR loadcollectors 1 63
/GRAV/1
gravity                                                                                             
         1         Z         0         1        41          1.00000000000000    1.00000000000000E-03
/GRNOD/NODE/41
gravity                                                                                             
         2         3         9        11        14        19        20        26        30        31
        36        37        43        44        45        53        54        60        64        65
        81        82        83        84        85        87        88        94        95        98
       106       108       110       114       117       119       123       125       127       131
       134       136       140       142       144       148       151       153       157       159
       161       165       168       170       191       193       195       199       202       204
       760       761       762       763       764       765       766       767       768       769
       770       771       772       773       774       775       776       777       778       779
       780       781       782       783       784       785       786       787       788       789
       790       791       792       793       794       795       796       797       798       799
       800       801       802       803       804       805       806       807       808       809
       810       811       812       813       814       815       816       817       818       819
       820       821       822       823       824       825       826       827       828       829
       830       831       832       833       834       835       836       837       838       839
       840       841       842       843       844       845       846       847       848       849
       850       851       852       853       854       855       856       857       858       859
       860       861       862       863       864       865       866       867       868       869
       870       871       872       873       874       875       876       877       878       879
       880       881       882       883       884       885       886       887       888       889
       890       891       892       893       894       895       896       897       898       899
# ... 126 like lines cut
##--------------------------------------------------------------------------------------------------
## Type 7 Interfaces
##--------------------------------------------------------------------------------------------------
#---1----|----2----|----3----|----4----|----5----|----6----|----7----|----8----|----9----|---10----|
#- 13. INTERFACES:
#---1----|----2----|----3----|----4----|----5----|----6----|----7----|----8----|----9----|---10----|
#          Fscalegap             GAP_MAX             Fpenmax
#              Stmin               Stmax          %mesh_size               dtmin  Irem_gap
#              Stfac                Fric              Gapmin              Tstart               Tstop
#      IBC                        Inacti                VisS                VisF              Bumult
#    Ifric    Ifiltr               Xfreq     Iform   sens_ID
##HMGROUP  1 4
/INTER/TYPE7/1
New INTER 1                                                                                         
        65        14         0         0         0                   0         0         0         0
                 0.0                 0.0                 0.0
                 0.0                 0.0                                     0.0         0          
                 0.0                 0.0                 1.5                 0.0                 0.0
       000                             0                 0.0                 0.0                 0.0
         0         0                 0.0         0         0                              
## HM Message : Set reference is a formula set and will be exported later
## HM Message : Set reference is a formula set and will be exported later
/RWALL/PLANE/4
plane                                                                                               
         0         2        55         0
                50.0                 0.5                 0.0                             0
                 0.0             -1968.0             -2375.0
                 0.0             -1968.0             -2374.0
/RWALL/CYL/5
cylinder with friction                                                                              
         0         2        57         0
                50.0                0.45               120.0                             0
               190.0                 0.0               130.0
               190.0                 1.0               130.0
##--------------------------------------------------------------------------------------------------
## N Noded Rigid Bodies
##--------------------------------------------------------------------------------------------------
#---1----|----2----|----3----|----4----|----5----|----6----|----7----|----8----|----9----|---10----|
#- 15. RIGID BODIES:
#---1----|----2----|----3----|----4----|----5----|----6----|----7----|----8----|----9----|---10----|
#                Jxx                 Jyy                 Jzz
#                Jxy                 Jyz                 Jxz
#Ioptoff
##HMMOVE elements 1 133
/RBODY/1
New RBODY 1                                                                                         
      2153         0         0         1                 0.0        59         1         0         0
                 0.0                 0.0                 0.0
                 0.0                 0.0                 0.0
         0          
/GRNOD/NODE/59
New GRNOD 58 _nodes_subsubgroup_                                                                    
         2         3         9        11        14        19        20        26        30        31
        36        37        43        44        45        53        54        60        64        65
        81        82        83        84        85        87        88        94        95        98
       106       108       110       114       117       119       123       125       127       131
       134       136       140       142       144       148       151       153       157       159
       161       165       168       170       191       193       195       199       202       204
       760       761       762       763       764       765       766       767       768       769
       770       771       772       773       774       775       776       777       778       779
       780       781       782       783       784       785       786       787       788       789
       790       791       792       793       794       795       796       797       798       799
       800       801       802       803       804       805       806       807       808       809
       810       811       812       813       814       815       816       817       818       819
       820       821       822       823       824       825       826       827       828       829
       830       831       832       833       834       835       836       837       838       839
       840       841       842       843       844       845       846       847       848       849
       850       851       852       853       854       855       856       857       858       859
       860       861       862       863       864       865       866       867       868       869
       870       871       872       873       874       875       876       877       878       879
       880       881       882       883       884       885       886       887       888       889
       890       891       892       893       894       895       896       897       898       899
# ... 126 like lines cut
##--------------------------------------------------------------------------------------------------
## Monitored volumes Airbag1
##--------------------------------------------------------------------------------------------------
/MONVOL/AIRBAG1/1
Injected gas - mass: 5.35g                                                                          
         7                           0.0
                 1.0                 1.0                 1.0                 1.0                 1.0
      1001          1.00000000000000E-03                 0.1               253.0         0         0
         1
      1001         1         0         0         0         0
         1         0
         0         0            141000.0                 0.0                                        
1.00000000000000E+30                 0.0 1.00000000000000E+30 1.00000000000000E+30                   0
         0         0         0                           0.0                 0.0                 0.0
         0         0         0                           0.0                 0.0                 0.0
##--------------------------------------------------------------------------------------------------
## Sets
##--------------------------------------------------------------------------------------------------
/GRNOD/GRNOD/65
New GRNOD 65                                                                                        
        66        69
/GRNOD/GRNOD/72
INIVEL_group_72_of_GRNOD                                                                            
        70        71
/GRNOD/NODE/43
rigid body slave nodes                                                                              
         2         3         9        11        14        19        20        26        30        31
        36        37        43        44        45        53        54        60        64        65
        81        82        83        84        85        87        88        94        95        98
       106       108       110       114       117       119       123       125       127       131
       134       136       140       142       144       148       151       153       157       159
       161       165       168       170       191       193       195       199       202       204
       760       761       762       763       764       765       766       767       768       769
       770       771       772       773       774       775       776       777       778       779
       780       781       782       783       784       785       786       787       788       789
       790       791       792       793       794       795       796       797       798       799
       800       801       802       803       804       805       806       807       808       809
       810       811       812       813       814       815       816       817       818       819
       820       821       822       823       824       825       826       827       828       829
       830       831       832       833       834       835       836       837       838       839
       840       841       842       843       844       845       846       847       848       849
       850       851       852       853       854       855       856       857       858       859
       860       861       862       863       864       865       866       867       868       869
       870       871       872       873       874       875       876       877       878       879
       880       881       882       883       884       885       886       887       888       889
       890       891       892       893       894       895       896       897       898       899
# ... 126 like lines cut
#---1----|----2----|----3----|----4----|----5----|----6----|----7----|----8----|----9----|---10----|
#                Vxt                 Vyt                 Vzt                  VR
/GRNOD/NODE/55
rigid plane wall slave nodes                                                                        
         2         3         9        11        14        19        20        26        30        31
        36        37        43        44        45        53        54        60        64        65
        81        82        83        84        85        87        88        94        95        98
       106       108       110       114       117       119       123       125       127       131
       134       136       140       142       144       148       151       153       157       159
       161       165       168       170       191       193       195       199       202       204
       760       761       762       763       764       765       766       767       768       769
       770       771       772       773       774       775       776       777       778       779
       780       781       782       783       784       785       786       787       788       789
       790       791       792       793       794       795       796       797       798       799
       800       801       802       803       804       805       806       807       808       809
       810       811       812       813       814       815       816       817       818       819
       820       821       822       823       824       825       826       827       828       829
       830       831       832       833       834       835       836       837       838       839
       840       841       842       843       844       845       846       847       848       849
       850       851       852       853       854       855       856       857       858       859
       860       861       862       863       864       865       866       867       868       869
       870       871       872       873       874       875       876       877       878       879
       880       881       882       883       884       885       886       887       888       889
       890       891       892       893       894       895       896       897       898       899
# ... 126 like lines cut
#---1----|----2----|----3----|----4----|----5----|----6----|----7----|----8----|----9----|---10----|
#- 17. NODE GROUPS:
#---1----|----2----|----3----|----4----|----5----|----6----|----7----|----8----|----9----|---10----|
/GRNOD/NODE/57
rigid cylinder wall slave nodes                                                                     
         2         3         9        11        14        19        20        26        30        31
        36        37        43        44        45        53        54        60        64        65
        81        82        83        84        85        87        88        94        95        98
       106       108       110       114       117       119       123       125       127       131
       134       136       140       142       144       148       151       153       157       159
       161       165       168       170       191       193       195       199       202       204
       760       761       762       763       764       765       766       767       768       769
       770       771       772       773       774       775       776       777       778       779
       780       781       782       783       784       785       786       787       788       789
       790       791       792       793       794       795       796       797       798       799
       800       801       802       803       804       805       806       807       808       809
       810       811       812       813       814       815       816       817       818       819
       820       821       822       823       824       825       826       827       828       829
       830       831       832       833       834       835       836       837       838       839
       840       841       842       843       844       845       846       847       848       849
       850       851       852       853       854       855       856       857       858       859
       860       861       862       863       864       865       866       867       868       869
       870       871       872       873       874       875       876       877       878       879
       880       881       882       883       884       885       886       887       888       889
       890       891       892       893       894       895       896       897       898       899
# ... 126 like lines cut
#---1----|----2----|----3----|----4----|----5----|----6----|----7----|----8----|----9----|---10----|
#- 14. RIGID WALLS:
#---1----|----2----|----3----|----4----|----5----|----6----|----7----|----8----|----9----|---10----|
#           D_search                fric            Diameter                ffac       ifq
#                 XM                  YM                  ZM
#               X_M1                Y_M1                Z_M1
#           D_search                fric            Diameter                ffac       ifq
#                 XM                  YM                  ZM
#               X_M1                Y_M1                Z_M1
/GRNOD/NODE/66
New GRNOD 65 _nodes_subsubgroup_                                                                    
         2         3         9        11        14        19        20        26        30        31
        36        37        43        44        45        53        54        60        64        65
        81        82        83        84        85        87        88        94        95        98
       106       108       110       114       117       119       123       125       127       131
       134       136       140       142       144       148       151       153       157       159
       161       165       168       170       191       193       195       199       202       204
       760       761       762       763       764       765       766       767       768       769
       770       771       772       773       774       775       776       777       778       779
       780       781       782       783       784       785       786       787       788       789
       790       791       792       793       794       795       796       797       798       799
       800       801       802       803       804       805       806       807       808       809
       810       811       812       813       814       815       816       817       818       819
       820       821       822       823       824       825       826       827       828       829
       830       831       832       833       834       835       836       837       838       839
       840       841       842       843       844       845       846       847       848       849
       850       851       852       853       854       855       856       857       858       859
       860       861       862       863       864       865       866       867       868       869
       870       871       872       873       874       875       876       877       878       879
       880       881       882       883       884       885       886       887       888       889
       890       891       892       893       894       895       896       897       898       899
# ... 126 like lines cut
#---1----|----2----|----3----|----4----|----5----|----6----|----7----|----8----|----9----|---10----|
/GRNOD/PART/69
New GRNOD 65 _parts_subsubgroup_                                                                    
         5
/GRNOD/PART/70
INIVEL_group_70_of_PART                                                                             
       121       122
/GRNOD/NODE/71
INIVEL_group_71_of_NODE                                                                             
      2153
##--------------------------------------------------------------------------------------------------
## Sets
##--------------------------------------------------------------------------------------------------
/GRSHEL/SHEL/2
New SURF 13 _4 nodes shells_subsubgroup_                                                            
      4473      4474      4477      4481      4482      4483      4512      4518      4523      4524
      4525      4526      4531      4535      4536      4542      4549      4552      4553      4554
      4555      4556      4557      4558      4568      4570      4571      4572      4574      4575
      4578      4579      4580      4582      4584      4586      4590      4591      4593      4596
      4597      4598      4600      4602      4604      4607      4610      4611      4612      4615
      4616      4617      4625      4626      4627      4628      4629      4630      4631      4632
      4633      4634      4635      4636      4637      4638      4639      4640      4641      4642
      4643      4644      4645      4646      4647      4649      4650      4651      4652      4653
      4654      4656      4657      4658      4659      4661      4664      4665      4669      4670
      4673      4674      4680      4681      4684      4685      4696      4698      4700      4701
      4705      4731      4732      4733      4734      4739      4740      4741      4743      4744
      4745      4746      4749      4750      4751      4758      4762      4763      4765      4767
      4781      4782      4785      4786      4792      4793      4796      4797      4801      4802
      4805      4807      4808      4809      4810      4812      4813      4814      4815      4816
      4817      4819      4820      4821      4822      4823      4825      4826      4827      4846
      4847      4848      4849      4851      4858      4859      4860      4864      4865      4870
      4871      4872      4873      4876      4877      4878      4879      4880      4881      4882
      4884      4885      4886      4888      4889      4890      4891      4892      4893      4895
      4896      4897      4898      4899      4900      4901      4902      4903      4904      4905
      4906      4907      4908      4909      4910      4911      4912      4913      4914      4915
# ... 20 like lines cut
/GRSHEL/SHEL/1
SHELL elements                                                                                      
       370       371       372       373       374       375       376       377       378       379
       380       381       382       383       384       385       386       387       388       389
       390       391       392       393       394       395       396       397       398       399
       400       401       402       403       404       405       406       407       408       409
       410       411       412       413       414       415       416       417       418       419
       420       421       422       424       425       426       427       428       429       430
       431       432       433       434       435       436       437       438       439       440
       441       442       443       444       445       446       447       448       449       450
       451       452       453       454       455       456       457       458       459       460
       461       462       463       464       465       466       467       468       469       470
       471       472       473       474       475       476       477       478       479       480
       481       482       483       484       485       486       487       488       489       490
       491       492       493       494       495       496       497       498       499       500
       501       502       503       504       505       506       507       508       509       510
       511       512       513       514       515       516       517       518       519       520
       522       523       524       525       526       527       528       529       530       531
       532       533       534       535       536       537       538       539       540       541
       542       543       544       545       546       547       548       549       550       551
       552       553       554       555       556       557       558       559       560       561
       562       563       564       565       566       567       568       569       570       571
# ... 122 like lines cut
##--------------------------------------------------------------------------------------------------
## Sets
##--------------------------------------------------------------------------------------------------
/GRSH3N/SH3N/1
SH3N elements                                                                                       
       909       910       911       912       913       914       915       916       917       918
       989       990       991       992       993      1030      1031      1032      1033      1034
      1070      1071      1072      1073      1074      1110      1111      1112      1113      1114
      1150      1151      1152      1153      1154      1190      1191      1192      1193      1194
      1331      1332      1333      1334      1335      1422      1423      1424      1425      1426
      1815      1816      1817      1818      1819      1820      1821      1822      1823      1824
##--------------------------------------------------------------------------------------------------
## Sets
##--------------------------------------------------------------------------------------------------
/SURF/GRSHEL/14
New SURF 13 _4 nodes shells_subgroup_                                                               
         2
/SURF/GRSH3N/11
Surface_for_airbag - SH3N                                                                           
         1
/SURF/GRSHEL/12
Surface_for_airbag - SHELL                                                                          
         1
/SURF/SURF/7
surface_for_airbag                                                                                  
        11        12
##--------------------------------------------------------------------------------------------------
## Parts
##--------------------------------------------------------------------------------------------------
#---1----|----2----|----3----|----4----|----5----|----6----|----7----|----8----|----9----|---10----|
#- 16. MONITORED VOLUMES:
#---1----|----2----|----3----|----4----|----5----|----6----|----7----|----8----|----9----|---10----|
#            AscaleT             AscaleP             AscaleS             AscaleA             AscaleD
#   mat_ID                            Mu                Pext                  T0     Iequi      Ittf
#     Njet
#inject_ID   sens_ID      Ijet  node_ID1  node_ID2  node_ID3
#    Nvent  Nporsurf
# surf_IDv     Iform               Avent               Bvent
#             Tstart               Tstop               dPdef              dtPdef   IdtPdef
#  fct_IDt   fct_IDP   fct_IDA                       Fscalet             FscaleP             FscaleA
# fct_IDt'  fct_IDP'  fct_IDA'                      Fscalet'            FscaleP'            FscaleA'
#---1----|----2----|----3----|----4----|----5----|----6----|----7----|----8----|----9----|---10----|
#-  5. SKEWS & FRAMES:
#---1----|----2----|----3----|----4----|----5----|----6----|----7----|----8----|----9----|---10----|
#-  6. PARTS:
#---1----|----2----|----3----|----4----|----5----|----6----|----7----|----8----|----9----|---10----|
##HWCOLOR components 5 29
/PART/5
filet                                                                                               
         1         1         5                    
#---1----|----2----|----3----|----4----|----5----|----6----|----7----|----8----|----9----|---10----|
##HWCOLOR components 121 2
/PART/121
white                                                                                               
        10        10         1                    
#---1----|----2----|----3----|----4----|----5----|----6----|----7----|----8----|----9----|---10----|
##HWCOLOR components 122 1
/PART/122
black                                                                                               
        10        10         1                    
#---1----|----2----|----3----|----4----|----5----|----6----|----7----|----8----|----9----|---10----|
##HWCOLOR components 124 2
/PART/124
lines                                                                                               
        12        12         2                    
#---1----|----2----|----3----|----4----|----5----|----6----|----7----|----8----|----9----|---10----|
##HWCOLOR components 125 55
/PART/125
lawn                                                                                                
        12        12         2                    
#---1----|----2----|----3----|----4----|----5----|----6----|----7----|----8----|----9----|---10----|
##HWCOLOR components 126 9
/PART/126
circular frame                                                                                      
        12        12         2                    
#---1----|----2----|----3----|----4----|----5----|----6----|----7----|----8----|----9----|---10----|
##HWCOLOR components 127 63
/PART/127
SPRING_1                                                                                            
        13         0         4                    
#---1----|----2----|----3----|----4----|----5----|----6----|----7----|----8----|----9----|---10----|
##HWCOLOR components 128 3
/PART/128
SPRING_2                                                                                            
        13         0         4                    
#---1----|----2----|----3----|----4----|----5----|----6----|----7----|----8----|----9----|---10----|
##HWCOLOR components 131 3
/PART/131
SPRING_5                                                                                            
        13         0         4                    
#---1----|----2----|----3----|----4----|----5----|----6----|----7----|----8----|----9----|---10----|
##HWCOLOR components 132 4
/PART/132
SPRING_6                                                                                            
        13         0         4                    
##--------------------------------------------------------------------------------------------------
## Subsets
##--------------------------------------------------------------------------------------------------
#---1----|----2----|----3----|----4----|----5----|----6----|----7----|----8----|----9----|---10----|
#-  7. SUBSETS:
#---1----|----2----|----3----|----4----|----5----|----6----|----7----|----8----|----9----|---10----|
##HWCOLOR assemblies 1 4
/SUBSET/1
BALL                                                                                                
#---1----|----2----|----3----|----4----|----5----|----6----|----7----|----8----|-
##HWCOLOR assemblies 2 5
/SUBSET/2
GROUND                                                                                              
#---1----|----2----|----3----|----4----|----5----|----6----|----7----|----8----|-
##HWCOLOR assemblies 3 3
/SUBSET/3
BART_CIR                                                                                            
         2         1
#---1----|----2----|----3----|----4----|----5----|----6----|----7----|----8----|----9----|---10----|
##HWCOLOR assemblies 4 4
/SUBSET/4
TIRLOINR                                                                                            
         3
#---1----|----2----|----3----|----4----|----5----|----6----|----7----|----8----|----9----|---10----|
#-  8. GEOMETRICAL SETS:
#---1----|----2----|----3----|----4----|----5----|----6----|----7----|----8----|----9----|---10----|
##HWCOLOR assemblies 5 5
/SUBSET/5
FILET                                                                                               
#---1----|----2----|----3----|----4----|----5----|----6----|----7----|----8----|-
##--------------------------------------------------------------------------------------------------
## Time History - Nodes
##--------------------------------------------------------------------------------------------------
/TH/NODE/2
master node rigid body                                                                              
DEF       XYZ       
      2153         0master node rigid body_group_0                                                  
#---1----|----2----|----3----|----4----|----5----|----6----|----7----|----8----|----9----|---10----|
#    NODid     Iskew                                           NODname
##--------------------------------------------------------------------------------------------------
## Time History - Elems
##--------------------------------------------------------------------------------------------------
##--------------------------------------------------------------------------------------------------
## Time History - Parts
##--------------------------------------------------------------------------------------------------
##--------------------------------------------------------------------------------------------------
## Time History - Frames
##--------------------------------------------------------------------------------------------------
##--------------------------------------------------------------------------------------------------
## Time History - Interfaces and Rwalls
##--------------------------------------------------------------------------------------------------
##--------------------------------------------------------------------------------------------------
## Time History - Cyl Joints
##--------------------------------------------------------------------------------------------------
##--------------------------------------------------------------------------------------------------
## Time History - Accelerometer
##--------------------------------------------------------------------------------------------------
##--------------------------------------------------------------------------------------------------
## Time History - Monv and Sections
##--------------------------------------------------------------------------------------------------
##--------------------------------------------------------------------------------------------------
## Time History - Subsets
##--------------------------------------------------------------------------------------------------
##--------------------------------------------------------------------------------------------------
## Time History - Control vols
##--------------------------------------------------------------------------------------------------
/TH/MONV/1
airbag                                                                                              
DEF       
         1
#---1----|----2----|----3----|----4----|----5----|----6----|----7----|----8----|----9----|---10----|
#    NODid     Iskew                                           NODname
##--------------------------------------------------------------------------------------------------
## Time History - Cross Sections
##--------------------------------------------------------------------------------------------------
##--------------------------------------------------------------------------------------------------
## Time History - Rigid Walls
##--------------------------------------------------------------------------------------------------
##--------------------------------------------------------------------------------------------------
## Time History - Load Collectors
##--------------------------------------------------------------------------------------------------
##--------------------------------------------------------------------------------------------------
## Time History - Sets
##--------------------------------------------------------------------------------------------------
##--------------------------------------------------------------------------------------------------
## Time History - Element Clusters
##--------------------------------------------------------------------------------------------------
##------------------------------------------------------------------------------
## End Of Radioss Block Deck
##------------------------------------------------------------------------------
/END
##--------------------------------------------------------------------------------------------------
## HM_FOOTER_COMMENTS - BEGIN
##--------------------------------------------------------------------------------------------------
#---1----|----2----|----3----|----4----|----5----|----6----|----7----|----8----|----9----|---10----|
## HM_FOOTER_COMMENTS - END
##<?xml version="1.0" encoding="utf-8"?>
##<Altair_XML_Export>
##    <UDM xmlns:SOAP-ENV="http://schemas.xmlsoap.org/soap/envelope/" xmlns:SOAP-ENC="http://schemas.xmlsoap.org/soap/encoding/" xmlns:xsi="http://www.w3.org/2001/XMLSchema-instance" xmlns:xsd="http://www.w3.org/2001/XMLSchema" xmlns:udmcfg="http://schemas.altair.com/AltairUDMRuntimeConfig" xmlns:udmxml="http://schemas.altair.com/AltairUDM" xmlns:importrules="http://schemas.altair.com/hsm/importru
##        <udmxml:EntityCollection xsi:type="udmxml:EntityCollectionCType">
##            <udmxml:Entity xsi:type="udmxml:AssemblyDMCType" displayName="HW_Assembly" contentDefinitionType="UDMAssemblyDM" id="e3b046de63e2e9449bed1803e9732f00:0">
##                <udmxml:Children>
##                    <udmxml:Child xsi:type="udmxml:ChildCType" refId="ccf8ed3ac878984394f7eab900a51a03:0" timestamp="1548937580046761" childFlags="0" groupName="boas" contentDefinitionType="UDMBOA"/>
##                </udmxml:Children>
##            </udmxml:Entity>
##            <udmxml:Entity xsi:type="udmxml:BOACType" displayName="HW_BOA" contentDefinitionType="UDMBOA" id="ccf8ed3ac878984394f7eab900a51a03:0">
##                <udmxml:Children>
##                    <udmxml:Child xsi:type="udmxml:ChildCType" refId="78d73c46cb7a2a4391ba8b527fb28618:0" timestamp="1548937580046761" childFlags="0" groupName="parts" contentDefinitionType="UDMPartProtoOcc">
##                        <AdditionalIdList xsi:type="udmxml:AdditionalIdCType" xmlns="http://schemas.altair.com/AltairUDM" keyValue="Model" keyName="displayname" contentDefinitionType="UDMPartProtoOcc"/>
##                    </udmxml:Child>
##                </udmxml:Children>
##            </udmxml:Entity>
##            <udmxml:Entity xsi:type="udmxml:PartCType" displayName="Model.p" contentDefinitionType="UDMPartProto" id="ea74bbfb565012479ac9d5cbac7ecc95:0">
##                <udmxml:Children>
##                    <udmxml:Child xsi:type="udmxml:ChildCType" refId="209141d7274ae546a81bdb02703b69e0:0" timestamp="1548937580247146" childFlags="0" groupName="partprotoinst" contentDefinitionType="UDMPartProtoInst"/>
##                </udmxml:Children>
##            </udmxml:Entity>
##            <udmxml:Entity xsi:type="udmxml:PartCType" displayName="circular frame.p" contentDefinitionType="UDMPartProto" id="d8dfd357f3772843a54f790a0429fb3a:0">
##                <udmxml:Attributes>
##                    <udmxml:Attribute xsi:type="udmxml:AttributeCType" valueutf8="-" type="string" name="studyrevision" displayName="STUDY_REVISION">-</udmxml:Attribute>
##                    <udmxml:Attribute xsi:type="udmxml:AttributeCType" valueutf8="circular frame" type="string" name="HW_UID">circular frame</udmxml:Attribute>
##                    <udmxml:Attribute xsi:type="udmxml:AttributeCType" valueutf8="-" type="string" name="PLMXML_PRODUCTREVISION_REVISION">-</udmxml:Attribute>
##                </udmxml:Attributes>
##            </udmxml:Entity>
##            <udmxml:Entity xsi:type="udmxml:PartCType" displayName="BAT_CIR_0000.rad.p" contentDefinitionType="UDMPartProto" id="fad181eb79b2044c828f320f14c1aab3:0">
##                <udmxml:Attributes>
##                    <udmxml:Attribute xsi:type="udmxml:AttributeCType" valueutf8="-" type="string" name="studyrevision" displayName="STUDY_REVISION">-</udmxml:Attribute>
##                    <udmxml:Attribute xsi:type="udmxml:AttributeCType" valueutf8="BAT_CIR_0000.rad" type="string" name="HW_UID">BAT_CIR_0000.rad</udmxml:Attribute>
##                    <udmxml:Attribute xsi:type="udmxml:AttributeCType" valueutf8="-" type="string" name="PLMXML_PRODUCTREVISION_REVISION">-</udmxml:Attribute>
##                </udmxml:Attributes>
##                <udmxml:Children>
##                    <udmxml:Child xsi:type="udmxml:ChildCType" refId="03bd44c014c60f488372a7ea085cf69c:0" timestamp="1548937580247146" childFlags="0" groupName="partprotoinst" contentDefinitionType="UDMPartProtoInst"/>
##                </udmxml:Children>
##            </udmxml:Entity>
##            <udmxml:Entity xsi:type="udmxml:PartCType" displayName="circular frame" contentDefinitionType="UDMPartProtoInst" id="03bd44c014c60f488372a7ea085cf69c:0">
##                <udmxml:Children>
##                    <udmxml:Child xsi:type="udmxml:ChildCType" refId="d8dfd357f3772843a54f790a0429fb3a:0" timestamp="1548937580247146" childFlags="0" groupName="partprotos" contentDefinitionType="UDMPartProto"/>
##                </udmxml:Children>
##            </udmxml:Entity>
##            <udmxml:Entity xsi:type="udmxml:PartCType" displayName="BAT_CIR_0000.rad" contentDefinitionType="UDMPartProtoInst" id="209141d7274ae546a81bdb02703b69e0:0">
##                <udmxml:Children>
##                    <udmxml:Child xsi:type="udmxml:ChildCType" refId="fad181eb79b2044c828f320f14c1aab3:0" timestamp="1548937580247146" childFlags="0" groupName="partprotos" contentDefinitionType="UDMPartProto"/>
##                </udmxml:Children>
##            </udmxml:Entity>
##            <udmxml:Entity xsi:type="udmxml:PartCType" prototypeRefId="ea74bbfb565012479ac9d5cbac7ecc95:0" displayName="Model" contentDefinitionType="UDMPartProtoOcc" id="78d73c46cb7a2a4391ba8b527fb28618:0">
##                <udmxml:Attributes>
##                    <udmxml:Attribute xsi:type="udmxml:AttributeCType" valueutf8="ea74bbfb565012479ac9d5cbac7ecc95" type="string" name="protoref" displayName="Prototype reference">ea74bbfb565012479ac9d5cbac7ecc95</udmxml:Attribute>
##                    <udmxml:Attribute xsi:type="udmxml:AttributeCType" valueutf8="5,121,122,124,125,127,128,131,132,133" type="string" name="SelectionExp">5,121,122,124,125,127,128,131,132,133</udmxml:Attribute>
##                    <udmxml:Attribute xsi:type="udmxml:AttributeCType" valueutf8="6" type="string" name="UdmxmlString_HmOccurrenceColor">6</udmxml:Attribute>
##                    <udmxml:Attribute xsi:type="udmxml:AttributeCType" valueutf8="2" type="string" name="UdmxmlString_HmOccurrenceId">2</udmxml:Attribute>
##                    <udmxml:Attribute xsi:type="udmxml:AttributeCType" valueutf8="true" type="boolean" name="pseudo root">true</udmxml:Attribute>
##                </udmxml:Attributes>
##                <udmxml:Children>
##                    <udmxml:Child xsi:type="udmxml:ChildCType" refId="2bd5b34a86344246ab28335179a4bab4:0" timestamp="1548937580247146" childFlags="0" groupName="partprotooccs" contentDefinitionType="UDMPartProtoOcc">
##                        <AdditionalIdList xsi:type="udmxml:AdditionalIdCType" xmlns="http://schemas.altair.com/AltairUDM" keyValue="BAT_CIR_0000.rad" keyName="displayname" contentDefinitionType="UDMPartProtoOcc"/>
##                    </udmxml:Child>
##                </udmxml:Children>
##            </udmxml:Entity>
##            <udmxml:Entity xsi:type="udmxml:PartCType" protoInstanceRefId="03bd44c014c60f488372a7ea085cf69c:0" prototypeRefId="d8dfd357f3772843a54f790a0429fb3a:0" displayName="circular frame" contentDefinitionType="UDMPartProtoOcc" id="05f9685a92376049bf3686bd1d6f6817:0">
##                <udmxml:Attributes>
##                    <udmxml:Attribute xsi:type="udmxml:AttributeCType" valueutf8="d8dfd357f3772843a54f790a0429fb3a" type="string" name="protoref" displayName="Prototype reference">d8dfd357f3772843a54f790a0429fb3a</udmxml:Attribute>
##                    <udmxml:Attribute xsi:type="udmxml:AttributeCType" valueutf8="03bd44c014c60f488372a7ea085cf69c" type="string" name="protoinstanceref" displayName="Prototype Instance reference">03bd44c014c60f488372a7ea085cf69c</udmxml:Attribute>
##                    <udmxml:Attribute xsi:type="udmxml:AttributeCType" valueutf8="126" type="string" name="SelectionExp">126</udmxml:Attribute>
##                    <udmxml:Attribute xsi:type="udmxml:AttributeCType" valueutf8="21" type="string" name="UdmxmlString_HmOccurrenceColor">21</udmxml:Attribute>
##                    <udmxml:Attribute xsi:type="udmxml:AttributeCType" valueutf8="16" type="string" name="UdmxmlString_HmOccurrenceId">16</udmxml:Attribute>
##                </udmxml:Attributes>
##            </udmxml:Entity>
##            <udmxml:Entity xsi:type="udmxml:PartCType" protoInstanceRefId="209141d7274ae546a81bdb02703b69e0:0" prototypeRefId="fad181eb79b2044c828f320f14c1aab3:0" displayName="BAT_CIR_0000.rad" contentDefinitionType="UDMPartProtoOcc" id="2bd5b34a86344246ab28335179a4bab4:0">
##                <udmxml:Attributes>
##                    <udmxml:Attribute xsi:type="udmxml:AttributeCType" valueutf8="fad181eb79b2044c828f320f14c1aab3" type="string" name="protoref" displayName="Prototype reference">fad181eb79b2044c828f320f14c1aab3</udmxml:Attribute>
##                    <udmxml:Attribute xsi:type="udmxml:AttributeCType" valueutf8="209141d7274ae546a81bdb02703b69e0" type="string" name="protoinstanceref" displayName="Prototype Instance reference">209141d7274ae546a81bdb02703b69e0</udmxml:Attribute>
##                    <udmxml:Attribute xsi:type="udmxml:AttributeCType" valueutf8="5" type="string" name="UdmxmlString_HmOccurrenceColor">5</udmxml:Attribute>
##                    <udmxml:Attribute xsi:type="udmxml:AttributeCType" valueutf8="4" type="string" name="UdmxmlString_HmOccurrenceId">4</udmxml:Attribute>
##                </udmxml:Attributes>
##                <udmxml:Children>
##                    <udmxml:Child xsi:type="udmxml:ChildCType" refId="05f9685a92376049bf3686bd1d6f6817:0" timestamp="1548937580247146" childFlags="0" groupName="partprotooccs" contentDefinitionType="UDMPartProtoOcc">
##                        <AdditionalIdList xsi:type="udmxml:AdditionalIdCType" xmlns="http://schemas.altair.com/AltairUDM" keyValue="circular frame" keyName="displayname" contentDefinitionType="UDMPartProtoOcc"/>
##                    </udmxml:Child>
##                </udmxml:Children>
##            </udmxml:Entity>
##        </udmxml:EntityCollection>
##        <udmxml:RelationCollection xsi:type="udmxml:RelationCollectionCType"/>
##        <udmxml:RootEntities xsi:type="udmxml:RootEntityCollectionCType">
##            <udmxml:ItemId>e3b046de63e2e9449bed1803e9732f00:0</udmxml:ItemId>
##        </udmxml:RootEntities>
##    </UDM>
##</Altair_XML_Export>
