#RADIOSS STARTER
#--------------------------------------------------------------------------------------------------|
#- RADIOSS DECK WRITTEN BY HyperCrash
#HyperCrash 14.0 (64 bits) 
#Mon Dec 21 15:04:49 2015
#-
#--------------------------------------------------------------------------------------------------|
#- RADIOSS DECK WRITTEN BY HyperCrash
#HyperCrash 10.0 SA2 (64 bits)
#Tue Jul 20 18:44:54 2010
#-
#------------------------------------------------------------------------------|
#- RADIOSS DECK / GENERATED BY HELIOSS 2.2.h8
#-
#- DATE	Tue Jun 29 11:20:07 2004
#------------------------------------------------------------------------------|
#-
#- DATE	Tue Jul 20 18:44:54 2010
#--------------------------------------------------------------------------------------------------|
#---1----|----2----|----3----|----4----|----5----|----6----|----7----|----8----|----9----|---10----|
#-
#- DATE	Mon Dec 21 15:04:49 2015
#--------------------------------------------------------------------------------------------------|
#---1----|----2----|----3----|----4----|----5----|----6----|----7----|----8----|----9----|---10----|
/BEGIN
TRACTION                                                                        
       140         0
                   g                  mm                  ms
                   g                  mm                  ms
#---1----|----2----|----3----|----4----|----5----|----6----|----7----|----8----|----9----|---10----|
#-  1. CONTROL CARDS:
#---1----|----2----|----3----|----4----|----5----|----6----|----7----|----8----|----9----|---10----|
/TITLE
 2 COQUES 3N EN hourglass(dy) + 1 coque 4N
#---1----|----2----|----3----|----4----|----5----|----6----|----7----|----8----|----9----|---10----|
/ANALY
#    N2D3D             IPARITH      ISUB
         0                   0         0
#---1----|----2----|----3----|----4----|----5----|----6----|----7----|----8----|----9----|---10----|
/DEF_SHELL
#   ISHELL    ISMSTR    ITHICK     IPLAS   ISTRAIN                        I_SH3N     IDRIL
         0         0         0         0         0                             1         0
#---1----|----2----|----3----|----4----|----5----|----6----|----7----|----8----|----9----|---10----|
/DEF_SOLID
#  I_SOLID    ISMSTR             ISTRAIN                                  IFRAME
         0         0                   0                                       0
#---1----|----2----|----3----|----4----|----5----|----6----|----7----|----8----|----9----|---10----|
/IOFLAG
#     IPRI               IGTYP     IOUTP    IOUTYY   IROOTYY     IDROT
         5                   0         0         0         0         0
#---1----|----2----|----3----|----4----|----5----|----6----|----7----|----8----|----9----|---10----|
/SHFRA/V4
#---1----|----2----|----3----|----4----|----5----|----6----|----7----|----8----|----9----|---10----|
/SPMD
#   DOMDEC     Nproc              Dkword             Nthread
         0         0                   0                   1
#---1----|----2----|----3----|----4----|----5----|----6----|----7----|----8----|----9----|---10----|
#-  2. MATERIALS:
#---1----|----2----|----3----|----4----|----5----|----6----|----7----|----8----|----9----|---10----|
/MAT/PLAS_JOHNS/1
MATERIEL
#              RHO_I
               .0078               .0078
#                  E                  Nu
              210000                  .3
#                  a                   b                   n           EPS_p_max            SIG_max0
                 206                 450                  .5                   0                 340
#                  c           EPS_DOT_0       ICC   Fsmooth               F_cut               Chard
                   0                   0         0         0                   0                   0
#                  m              T_melt              rhoC_p                 T_r
                   0                   0                   0                   0
#---1----|----2----|----3----|----4----|----5----|----6----|----7----|----8----|----9----|---10----|
#-  3. NODES:
#---1----|----2----|----3----|----4----|----5----|----6----|----7----|----8----|----9----|---10----|
/NODE
         1                   0                   0                   0
         2                   0                   1                   0
         3                   1                   0                   0
         4                   1                   1                   0
        12                   0                  .5                   0
        13                  .5                   0                   0
        14                  .5                  .5                   0
        24                  .5                   1                   0
        34                   1                  .5                   0
       102                   0                   1                   0
       104                   1                   1                   0
       202                   0                   1                   0
       204                   1                   1                   0
       205                   0                   1                   0
       206                   1                   1                   0
#---1----|----2----|----3----|----4----|----5----|----6----|----7----|----8----|----9----|---10----|
#-  4. BOUNDARY CONDITIONS:
#---1----|----2----|----3----|----4----|----5----|----6----|----7----|----8----|----9----|---10----|
/BCS/1
New BCS 1
#  Tra rot   skew_ID  grnod_ID
   111 111         0         1
/GRNOD/GRNOD/1
New GRNOD 1
         3
/GRNOD/GRNOD/3
New GRNOD 1 _nodes_subgroup_
         2
/GRNOD/NODE/2
New GRNOD 1 _nodes_subsubgroup_
         1         3        12        13        14        24        34
#---1----|----2----|----3----|----4----|----5----|----6----|----7----|----8----|----9----|---10----|
/BCS/2
BCS 2
#  Tra rot   skew_ID  grnod_ID
   101 111         0        18
/GRNOD/GRNOD/18
New GRNOD 18
        20
/GRNOD/GRNOD/20
New GRNOD 18 _nodes_subgroup_
        19
/GRNOD/NODE/19
New GRNOD 18 _nodes_subsubgroup_
       205
#---1----|----2----|----3----|----4----|----5----|----6----|----7----|----8----|----9----|---10----|
/BCS/3
BCS 3
#  Tra rot   skew_ID  grnod_ID
   101 111         0        21
/GRNOD/GRNOD/21
New GRNOD 21
        23
/GRNOD/GRNOD/23
New GRNOD 21 _nodes_subgroup_
        22
/GRNOD/NODE/22
New GRNOD 21 _nodes_subsubgroup_
       206
#---1----|----2----|----3----|----4----|----5----|----6----|----7----|----8----|----9----|---10----|
#-  5. PARTS:
#---1----|----2----|----3----|----4----|----5----|----6----|----7----|----8----|----9----|---10----|
/PART/1
Part number 1
         1         1         0
#---1----|----2----|----3----|----4----|----5----|----6----|----7----|----8----|----9----|---10----|
# SH3N elements of /PART/1/Part number 1:
#---1----|----2----|----3----|----4----|----5----|----6----|----7----|----8----|----9----|---10----|
/SH3N/1
         1         2        12        24                                                           0
         2        12        24        14                                                           0
         3        12         1        14                                                           0
         4         1        13        14                                                           0
         5        14        13        34                                                           0
         6         4        24        14                                                           0
         7        34         4        14                                                           0
         8        13         3        34                                                           0
#---1----|----2----|----3----|----4----|----5----|----6----|----7----|----8----|----9----|---10----|
#-  6. GEOMETRICAL SETS:
#---1----|----2----|----3----|----4----|----5----|----6----|----7----|----8----|----9----|---10----|
/PROP/SHELL/1
Part number 1
#   Ishell    Ismstr     Ish3n    Idrill
        12         0        30         0
#                 hm                  hf                  hr                  dm                  dn
                 .01                   1                   0                   0                   0
#        N   Istrain               Thick              Ashear              Ithick     Iplas
         5         0                  .1                   0                   0         0
#---1----|----2----|----3----|----4----|----5----|----6----|----7----|----8----|----9----|---10----|
#-  7. FUNCTIONS:
#---1----|----2----|----3----|----4----|----5----|----6----|----7----|----8----|----9----|---10----|
/FUNCT/1
function_1
#                  X                   Y
                   0                   0                                                            
                 200                  10                                                            
                 400                  10                                                            
#---1----|----2----|----3----|----4----|----5----|----6----|----7----|----8----|----9----|---10----|
#-  8. CONCENTRATED LOADS:
#---1----|----2----|----3----|----4----|----5----|----6----|----7----|----8----|----9----|---10----|
/CLOAD/1
CLOAD 1
#funct_IDT       Dir   skew_ID sensor_ID  grnod_ID                       Ascalex             Fscaley
         1         Y         0         0        12                             1                   1
/GRNOD/GRNOD/12
New GRNOD 12
        14
/GRNOD/GRNOD/14
New GRNOD 12 _nodes_subgroup_
        13
/GRNOD/NODE/13
New GRNOD 12 _nodes_subsubgroup_
       205
#---1----|----2----|----3----|----4----|----5----|----6----|----7----|----8----|----9----|---10----|
/CLOAD/2
CLOAD 2
#funct_IDT       Dir   skew_ID sensor_ID  grnod_ID                       Ascalex             Fscaley
         1         Y         0         0        15                             1                  -1
/GRNOD/GRNOD/15
New GRNOD 15
        17
/GRNOD/GRNOD/17
New GRNOD 15 _nodes_subgroup_
        16
/GRNOD/NODE/16
New GRNOD 15 _nodes_subsubgroup_
       206
#---1----|----2----|----3----|----4----|----5----|----6----|----7----|----8----|----9----|---10----|
#-  9. RIGID BODIES:
#---1----|----2----|----3----|----4----|----5----|----6----|----7----|----8----|----9----|---10----|
/RBODY/1
RBODY 1
#     RBID     ISENS     NSKEW    ISPHER                MASS   Gnod_id     IKREM      ICOG   Surf_id
       205         0         0         0                   0         4         0         0         0
#                Jxx                 Jyy                 Jzz
                   0                   0                   0
#                Jxy                 Jyz                 Jxz
                   0                   0                   0
#Ioptoff
         0
/GRNOD/GRNOD/4
New GRNOD 4
         6
/GRNOD/GRNOD/6
New GRNOD 4 _nodes_subgroup_
         5
/GRNOD/NODE/5
New GRNOD 4 _nodes_subsubgroup_
         2
#---1----|----2----|----3----|----4----|----5----|----6----|----7----|----8----|----9----|---10----|
/RBODY/2
RBODY 2
#     RBID     ISENS     NSKEW    ISPHER                MASS   Gnod_id     IKREM      ICOG   Surf_id
       206         0         0         0                   0         8         0         0         0
#                Jxx                 Jyy                 Jzz
                   0                   0                   0
#                Jxy                 Jyz                 Jxz
                   0                   0                   0
#Ioptoff
         0
/GRNOD/GRNOD/8
New GRNOD 8
        10
/GRNOD/GRNOD/10
New GRNOD 8 _nodes_subgroup_
         9
/GRNOD/NODE/9
New GRNOD 8 _nodes_subsubgroup_
         4
#---1----|----2----|----3----|----4----|----5----|----6----|----7----|----8----|----9----|---10----|
#- 10. NODE GROUPS:
#---1----|----2----|----3----|----4----|----5----|----6----|----7----|----8----|----9----|---10----|
/GRNOD/NODE/7
ref_NODE_205
       205
#---1----|----2----|----3----|----4----|----5----|----6----|----7----|----8----|----9----|---10----|
/GRNOD/NODE/11
ref_NODE_206
       206
#---1----|----2----|----3----|----4----|----5----|----6----|----7----|----8----|----9----|---10----|
#- 11. TIME HISTORIES:
#---1----|----2----|----3----|----4----|----5----|----6----|----7----|----8----|----9----|---10----|
/TH/NODE/1
masternode1
#     var1      var2      var3      var4      var5      var6      var7      var8      var9     var10
DEF       
#    NODid     Iskew                                           NODname
       205         0masternode1_group_0                                                             
#---1----|----2----|----3----|----4----|----5----|----6----|----7----|----8----|----9----|---10----|
/TH/NODE/2
masternode2
#     var1      var2      var3      var4      var5      var6      var7      var8      var9     var10
DEF       
#    NODid     Iskew                                           NODname
       206         0masternode2_group_0                                                             
#---1----|----2----|----3----|----4----|----5----|----6----|----7----|----8----|----9----|---10----|
/TH/RBODY/3
RB1
#     var1      var2      var3      var4      var5      var6      var7      var8      var9     var10
DEF       
#     Obj1      Obj2      Obj3      Obj4      Obj5      Obj6      Obj7      Obj8      Obj9     Obj10
         1
#---1----|----2----|----3----|----4----|----5----|----6----|----7----|----8----|----9----|---10----|
/TH/RBODY/4
RB2
#     var1      var2      var3      var4      var5      var6      var7      var8      var9     var10
DEF       
#     Obj1      Obj2      Obj3      Obj4      Obj5      Obj6      Obj7      Obj8      Obj9     Obj10
         2
#---1----|----2----|----3----|----4----|----5----|----6----|----7----|----8----|----9----|---10----|
/TH/PART/5
PART
#     var1      var2      var3      var4      var5      var6      var7      var8      var9     var10
DEF       
#     Obj1      Obj2      Obj3      Obj4      Obj5      Obj6      Obj7      Obj8      Obj9     Obj10
         1
#---1----|----2----|----3----|----4----|----5----|----6----|----7----|----8----|----9----|---10----|
/TH/SH3N/6
Shell
#     var1      var2      var3      var4      var5      var6      var7      var8      var9     var10
DEF       
#     Elid                                                      Elname
         1          Shell_group_0                                                                   
#---1----|----2----|----3----|----4----|----5----|----6----|----7----|----8----|----9----|---10----|
/END
#---1----|----2----|----3----|----4----|----5----|----6----|----7----|----8----|----9----|---10----|
