#RADIOSS STARTER
#--------------------------------------------------------------------------------------------------|
#- RADIOSS DECK WRITTEN BY HyperCrash
#HyperCrash 2020.1 (64 bits) 
#Wed Nov 18 15:08:39 2020
#-
#-
#- DATE	Wed Nov 18 15:08:39 2020
#--------------------------------------------------------------------------------------------------|
#--------------------------------------------------------------------------------------------------|
#-  1. PARAMETER:
#---1----|----2----|----3----|----4----|----5----|----6----|----7----|----8----|----9----|---10----|
/PARAMETER/GLOBAL/REAL/2
Velocity
V                          -11
#---1----|----2----|----3----|----4----|----5----|----6----|----7----|----8----|----9----|---10----|
/BEGIN
SPHEX_multi_110                                                                  
      2020         0
                  kg                  mm                  ms
                  kg                  mm                  ms
#---1----|----2----|----3----|----4----|----5----|----6----|----7----|----8----|----9----|---10----|
#-  1. CONTROL CARDS:
#---1----|----2----|----3----|----4----|----5----|----6----|----7----|----8----|----9----|---10----|
/TITLE
SPH Ditching example Multi-domain
#---1----|----2----|----3----|----4----|----5----|----6----|----7----|----8----|----9----|---10----|
/ANALY
#    N2D3D             IPARITH      ISUB
         0                   0         0
#---1----|----2----|----3----|----4----|----5----|----6----|----7----|----8----|----9----|---10----|
/DEF_SHELL
#   ISHELL    ISMSTR    ITHICK     IPLAS   ISTRAIN                        I_SH3N     IDRIL
         0         0         0         0         0                             1         0
#---1----|----2----|----3----|----4----|----5----|----6----|----7----|----8----|----9----|---10----|
/DEF_SOLID
#  I_SOLID    ISMSTR             ISTRAIN   ITETRA4  ITETRA10      IMAS    IFRAME
         0         0                   0         0         0         0         0
#---1----|----2----|----3----|----4----|----5----|----6----|----7----|----8----|----9----|---10----|
/IOFLAG
#     IPRI               IGTYP     IOUTP    IOUTYY   IROOTYY     IDROT
         0                   0         0         0         0         0
#---1----|----2----|----3----|----4----|----5----|----6----|----7----|----8----|----9----|---10----|
/SPHGLO
#         Alpha_sort    Maxsph    Lneigh    Nneigh  Isol2sph
                  .1         0         0       120         0
#---1----|----2----|----3----|----4----|----5----|----6----|----7----|----8----|----9----|---10----|
/SPMD
#   DOMDEC     Nproc              Dkword             Nthread
         0         0                   0                   1
#---1----|----2----|----3----|----4----|----5----|----6----|----7----|----8----|----9----|---10----|
/SUBDOMAIN/1
SPH_SubDomain
# Part Ids
        19
#---1----|----2----|----3----|----4----|----5----|----6----|----7----|----8----|----9----|---10----|
#-  2. MATERIALS:
#---1----|----2----|----3----|----4----|----5----|----6----|----7----|----8----|----9----|---10----|
/MAT/ELAST/5
steel
#              RHO_I
              7.8E-6              7.8E-6
#                  E                  nu
               206.9                  .3
#---1----|----2----|----3----|----4----|----5----|----6----|----7----|----8----|----9----|---10----|
/MAT/HYD_VISC/6
water sph
#              RHO_I               RHO_0
                1E-6                   0
#                Knu                Pmin
                   0                   0
/EOS/STIFF-GAS/6
STIFF_GAS_WATER
#              GAMMA                  P0                 Psh                  P*               RHO_0
                 6.1                1E-4                   0              .36885                   0
#---1----|----2----|----3----|----4----|----5----|----6----|----7----|----8----|----9----|---10----|
#-  3. NODES:
#---1----|----2----|----3----|----4----|----5----|----6----|----7----|----8----|----9----|---10----|
/NODE
    284370         -500.129384         -11.9419639         -5.70527968
    284371         -500.271314           3.2319792         -15.8696298
    284372         -500.111496           1.0606105         -4.42423036
    284373         -500.680476           2.0044374          -45.171863
    284374         -500.668237         -13.3290873         -44.2953762
    284375         -500.803658            -9.26195         -53.9935706
    284376          499.951263          106.709118          -6.9111579
    284377          499.951263           93.418237         -6.91112263
    284378          499.951264           80.127355         -6.91108737
    284379          499.951264           66.836473          -6.9110521
    284380          499.951265           53.545591         -6.91101684
    284381          499.951265           40.254709         -6.91098157
    284382          499.951266           26.963828         -6.91094631
    284383          499.951266           13.672946         -6.91091104
    284384          499.951267             .382064         -6.91087578
    284385          499.951267          -12.908818         -6.91084051
    284386          499.951268          -26.199699         -6.91080525
    284387          499.951268          -39.490581         -6.91076998
    284388          499.951269          -52.781463         -6.91073472
    284389          499.951269          -66.072345         -6.91069945
# ... 224626 like lines cut
#---1----|----2----|----3----|----4----|----5----|----6----|----7----|----8----|----9----|---10----|
#-  4. PARTS:
#---1----|----2----|----3----|----4----|----5----|----6----|----7----|----8----|----9----|---10----|
/PART/19
prism
         5         5        10
#---1----|----2----|----3----|----4----|----5----|----6----|----7----|----8----|----9----|---10----|
# SH3N elements of /PART/19/prism:
#---1----|----2----|----3----|----4----|----5----|----6----|----7----|----8----|----9----|---10----|
/SH3N/19
         1    286889    286910    286888
         2    286937    286886    286887
         5    285665    284376    285564
         6    284395    285566    285565
        17    284399    284397    284398
        30    284412    284411    284390
        68    284434    284433    284435
        80    284510    286789    286788
       104    286786    287001    286787
       112    284372    284371    284455
       125    284446    284448    284447
       137    284450    285591    285592
       138    285594    284469    285593
       139    286908    286907    286909
       145    284471    284472    284470
       183    284493    284494    286979
       196    284506    284508    284507
      2485    286941    286939    286940
      2498    286954    286953    286932
      2536    286976    286975    286977
#---1----|----2----|----3----|----4----|----5----|----6----|----7----|----8----|----9----|---10----|
# SHELL elements of /PART/19/prism:
#---1----|----2----|----3----|----4----|----5----|----6----|----7----|----8----|----9----|---10----|
/SHELL/19
         1    286912    286937    286887    286911
         2    286910    286911    286887    286888
         5    284378    284395    285565    284377
         6    284376    284377    285565    285564
         7    284429    284430    284431    284432
         8    284379    284396    284395    284378
         9    284396    285567    285566    284395
        10    284380    284393    284396    284379
        11    284393    284394    285567    284396
        12    284397    284399    284390    284391
        13    284399    284382    284383    284390
        14    284382    284399    284398    284381
        16    284381    284398    284393    284380
        17    285569    284400    284392    285570
        18    284400    284397    284391    284392
        19    285568    284401    284400    285569
        20    284394    284393    284398    284401
        21    284401    284398    284397    284400
        22    284407    284409    284403    284404
        23    284409    284410    284402    284403
# ... 2500 like lines cut
#---1----|----2----|----3----|----4----|----5----|----6----|----7----|----8----|----9----|---10----|
/PART/39
SPH
         6         6        20
#---1----|----2----|----3----|----4----|----5----|----6----|----7----|----8----|----9----|---10----|
# SPHCEL elements of /PART/39/SPH:
#---1----|----2----|----3----|----4----|----5----|----6----|----7----|----8----|----9----|---10----|
/SPHCEL/39
    582231
    582232
    582233
    582234
    582235
    582236
    582237
    582238
    582239
    582240
    582241
    582242
    582243
    582244
    582245
    582246
    582247
    582248
    582249
    582250
# ... 221985 like lines cut
#---1----|----2----|----3----|----4----|----5----|----6----|----7----|----8----|----9----|---10----|
#-  5. SUBSETS:
#---1----|----2----|----3----|----4----|----5----|----6----|----7----|----8----|----9----|---10----|
/SUBSET/10
prism
#---1----|----2----|----3----|----4----|----5----|----6----|----7----|----8----|----9----|---10----|
/SUBSET/11
TOTO
        10
#---1----|----2----|----3----|----4----|----5----|----6----|----7----|----8----|----9----|---10----|
/SUBSET/20
SPH0
#---1----|----2----|----3----|----4----|----5----|----6----|----7----|----8----|----9----|---10----|
#-  6. GEOMETRICAL SETS:
#---1----|----2----|----3----|----4----|----5----|----6----|----7----|----8----|----9----|---10----|
/PROP/SHELL/5
prism
#   Ishell    Ismstr     Ish3n    Idrill                            P_thick_fail
         0         0         0         0                                       0
#                 hm                  hf                  hr                  dm                  dn
                 .01                 .01                 .01                   0                   0
#        N   Istrain               Thick              Ashear              Ithick     Iplas
         0         0                   1             .833333                   0         0
#---1----|----2----|----3----|----4----|----5----|----6----|----7----|----8----|----9----|---10----|
/PROP/TYPE34/6
sph
#                 mp                  qa                  qb            alpha_cs   skew_ID      h_1D
     .00261127219724                   2                   1                   0         0         0
#    order                   h             xi_stab
        -1    21.2132034355965                   0
#---1----|----2----|----3----|----4----|----5----|----6----|----7----|----8----|----9----|---10----|
#-  7. FUNCTIONS:
#---1----|----2----|----3----|----4----|----5----|----6----|----7----|----8----|----9----|---10----|
/FUNCT/1
Gravite_en_mm_ms-2
#                  X                   Y
                   0              .00981
                1000              .00981
#---1----|----2----|----3----|----4----|----5----|----6----|----7----|----8----|----9----|---10----|
#-  8. INITIAL VELOCITIES:
#---1----|----2----|----3----|----4----|----5----|----6----|----7----|----8----|----9----|---10----|
/INIVEL/TRA/1
INIVEL
#                 Vx                  Vy                  Vz   Gnod_id   Skew_id
                   0                   0&V                          58         0
/GRNOD/GRNOD/58
New GRNOD 58
        60
/GRNOD/GRNOD/60
New GRNOD 58 _nodes_subgroup_
        59
/GRNOD/NODE/59
New GRNOD 58 _nodes_subsubgroup_
    287002
#---1----|----2----|----3----|----4----|----5----|----6----|----7----|----8----|----9----|---10----|
#-  9. ACCELEROMETERS:
#---1----|----2----|----3----|----4----|----5----|----6----|----7----|----8----|----9----|---10----|
/ACCEL/2
New ACCEL 2
#  node_ID   skew_ID                          Fcut
    287002         0                             0
#---1----|----2----|----3----|----4----|----5----|----6----|----7----|----8----|----9----|---10----|
#- 10. GRAVITIES:
#---1----|----2----|----3----|----4----|----5----|----6----|----7----|----8----|----9----|---10----|
/GRAV/1
GRAV_prism
#funct_IDT       DIR   skew_ID sensor_ID  grnod_ID                      Ascale_x            Fscale_Y
         1         Z         0         0        61                             1                  -1
/GRNOD/GRNOD/61
New GRNOD 61
        63
/GRNOD/GRNOD/63
New GRNOD 61 _nodes_subgroup_
        62
/GRNOD/NODE/62
New GRNOD 61 _nodes_subsubgroup_
    287002
#---1----|----2----|----3----|----4----|----5----|----6----|----7----|----8----|----9----|---10----|
#- 11. INTERFACES:
#---1----|----2----|----3----|----4----|----5----|----6----|----7----|----8----|----9----|---10----|
/INTER/TYPE7/1
type7_interface
#  Slav_id   Mast_id      Istf      Ithe      Igap                Ibag      Idel     Icurv      Iadm
        92        15         0         0         1                   0         0         0         0
#          Fscalegap             Gap_max             Fpenmax
                   0                   0                   0
#              Stmin               Stmax          %mesh_size               dtmin  Irem_gap   Irem_i2
                   0                   0                   0                   0         0         0
#              Stfac                Fric              Gapmin              Tstart               Tstop
                   0                   0                   3                   0                   0
#      IBC                        Inacti                VisS                VisF              Bumult
       000                             0                   0                   0                   0
#    Ifric    Ifiltr               Xfreq     Iform   sens_ID   fct_IDf             AscaleF   fric_ID
         0         0                   0         0         0         0                   0         0
/GRNOD/PART/92
GrnodPartForInterfaceId_1
        39
/SURF/SURF/15
New SURF 15
        16
/SURF/SURF/16
New SURF 15 _parts_and_subsets_subgroup_
        17
/SURF/PART/17
New SURF 15 _parts_subsubgroup_
        19
#---1----|----2----|----3----|----4----|----5----|----6----|----7----|----8----|----9----|---10----|
#- 12. RIGID BODIES:
#---1----|----2----|----3----|----4----|----5----|----6----|----7----|----8----|----9----|---10----|
/RBODY/1
RBODY_prism
#     RBID     ISENS     NSKEW    ISPHER                MASS   Gnod_id     IKREM      ICOG   Surf_id
    287002         0         0         0             23.0422        54         0         3         0
#                Jxx                 Jyy                 Jzz
                   0                   0                   0
#                Jxy                 Jyz                 Jxz
                   0                   0                   0
#  Ioptoff   Iexpams
         0         0
/GRNOD/GRNOD/54
New GRNOD 54
        55
/GRNOD/GRNOD/55
New GRNOD 54 _parts_and_subsets_subgroup_
        56
/GRNOD/PART/56
New GRNOD 54 _parts_subsubgroup_
        19
#---1----|----2----|----3----|----4----|----5----|----6----|----7----|----8----|----9----|---10----|
#- 13. SPH INLETS/OUTLETS:
#---1----|----2----|----3----|----4----|----5----|----6----|----7----|----8----|----9----|---10----|
/SPH/INOUT/3
Silent boundary
#    Itype    PartId SurfaceId            Distance  node_ID1  node_ID2  node_ID3                Fcut
         3        39         5                 100         0         0         0                   0
#                              Funct_IdP             FscaleP                  Lc
                                       0                   0                 225
# Blank card

/SURF/SEG/5
seg_outlet_1
         1    341103    318988    363202    385028
         2    477450    455051    318988    341103
         3    455051    499509    363202    318988
         4    521625    477450    341103    385028
         5    499509    521625    385028    363202
#---1----|----2----|----3----|----4----|----5----|----6----|----7----|----8----|----9----|---10----|
#- 14. TIME HISTORIES:
#---1----|----2----|----3----|----4----|----5----|----6----|----7----|----8----|----9----|---10----|
/TH/PART/10
parts
#     var1      var2      var3      var4      var5      var6      var7      var8      var9     var10
DEF       
#     Obj1      Obj2      Obj3      Obj4      Obj5      Obj6      Obj7      Obj8      Obj9     Obj10
        19        39
#---1----|----2----|----3----|----4----|----5----|----6----|----7----|----8----|----9----|---10----|
/TH/NODE/11
New _TH_NODE
#     var1      var2      var3      var4      var5      var6      var7      var8      var9     var10
DEF       
#    NODid     Iskew                                           NODname
    287002         0                                                                                
#---1----|----2----|----3----|----4----|----5----|----6----|----7----|----8----|----9----|---10----|
/TH/ACCEL/13
New _TH_ACCEL
#     var1      var2      var3      var4      var5      var6      var7      var8      var9     var10
DEF       
#     Obj1      Obj2      Obj3      Obj4      Obj5      Obj6      Obj7      Obj8      Obj9     Obj10
         2
#---1----|----2----|----3----|----4----|----5----|----6----|----7----|----8----|----9----|---10----|
/TH/RBODY/15
rbody
#     var1      var2      var3      var4      var5      var6      var7      var8      var9     var10
DEF       
#     Obj1      Obj2      Obj3      Obj4      Obj5      Obj6      Obj7      Obj8      Obj9     Obj10
         1
#---1----|----2----|----3----|----4----|----5----|----6----|----7----|----8----|----9----|---10----|
/TH/INTER/16
TH_inter
#     var1      var2      var3      var4      var5      var6      var7      var8      var9     var10
DEF       
#     Obj1      Obj2      Obj3      Obj4      Obj5      Obj6      Obj7      Obj8      Obj9     Obj10
         1
#---1----|----2----|----3----|----4----|----5----|----6----|----7----|----8----|----9----|---10----|
/END
#---1----|----2----|----3----|----4----|----5----|----6----|----7----|----8----|----9----|---10----|
