#RADIOSS STARTER
##========================================================================================
##
## Radioss Input Deck Generated by HyperMesh Version  : 2023.1.0.21
## Generated using HyperMesh-Radioss Template Version : 2023.1.0.21-40550
## Date: 04-08-2024   Time: 11:32:20
##
##========================================================================================
##
/BEGIN
#Runname                                                                        
includefile1                                                                    
#   Invers      Irun
      2024         0
#    Input_mass_unit   Input_length_unit     Input_time_unit
                  kg                  mm                  ms
#     Work_mass_unit    Work_length_unit      Work_time_unit
                  kg                  mm                  ms
#---1----|----2----|----3----|----4----|----5----|----6----|----7----|----8----|----9----|---10----|
#      4711
#/PERTURB/1
#test1
#                 1.0                0.01                  0                              
#         0      4711
##HWCOLOR materials 2 11
/MAT/PLAS_TAB/2
DP600 from SSAB Homepage                                                                            
#        Init. dens.
7.80000000000000E-06
#                  E                  Nu           Eps_p_max               Eps_t               Eps_m
               210.0                 0.3                 0.0                 0.0                 0.0
#  N_funct  F_smooth              C_hard               F_cut               Eps_f                  VP
         1         0                 0.0                 0.0                 0.0                    
#  fct_IDp              Fscale   Fct_IDE                EInf                  CE
         0                 0.0                                                  
# func_ID1  func_ID2  func_ID3  func_ID4  func_ID5
        15
#           Fscale_1            Fscale_2            Fscale_3            Fscale_4            Fscale_5
1.00000000000000E-03
#          Eps_dot_1           Eps_dot_2           Eps_dot_3           Eps_dot_4           Eps_dot_5
                 0.0
#---1----|----2----|----3----|----4----|----5----|----6----|----7----|----8----|----9----|---10----|
##HWCOLOR failures 2 11
##HMNAME FAIL_MODEL Failure_JOHNSON_2  11
/FAIL/JOHNSON/2
#                 D1                  D2                  D3                  D4                  D5
                -0.1                 0.6                -1.2                                        
#      EPSILON_DOT_0  IFAIL_SH  IFAIL_SO             EPSFmin                DADV               IXFEM
                                                         0.2                                           
#---1----|----2----|----3----|----4----|----5----|----6----|----7----|----8----|----9----|---10----|
##HWCOLOR properties 2 11
/PROP/SHELL/2
new Property                                                                                        
#   Ishell    Ismstr     Ish3n    Idrill    Ipinch                  P_Thick_Fail
        12         0         0                                                  
#                 Hm                  Hf                  Hr                  Dm                  Dn
                 0.0                 0.0                 0.0                 0.0                 0.0
#        N                         Thick              Ashear              Ithick     Iplas
         5                           1.0                 0.0                   1         1
#---1----|----2----|----3----|----4----|----5----|----6----|----7----|----8----|----9----|---10----|
##HWCOLOR curves 15 27
/FUNCT/15
#title                                                                                              
curve2 Mat-law36                                                                                    
#                  X                   Y
                 0.0             389.674
          0.00326906              400.23
          0.00693011             409.589
           0.0104447             418.254
           0.0118464             422.462
           0.0129266             426.827
           0.0136484             433.649
           0.0152255              443.84
           0.0185893             452.254
           0.0218744             469.641
           0.0253395             483.106
           0.0287915             494.684
           0.0322314             505.958
           0.0356586             515.583
           0.0390739             524.886
           0.0424768             533.055
           0.0458683             541.267
           0.0492477             548.545
           0.0526155             555.479
           0.0559716             561.572
# ... 46 like lines cut
#enddata
/END
