#RADIOSS STARTER
/BEGIN
GASPISTON
      2022         0
                  Mg                  mm                   s
                  Mg                  mm                   s
/NODE
#   node_ID                   X                   Y                   Z
         1                 0.0                 0.0                 0.0
         2                10.0                 0.0                 0.0
         3                10.0                10.0                 0.0
         4                 0.0                10.0                 0.0
         5                 0.0                 0.0                10.0
         6                10.0                 0.0                10.0
         7                10.0                10.0                10.0
         8                 0.0                10.0                10.0
         9                 0.0                 0.0                20.0
        10                10.0                 0.0                20.0
        11                10.0                10.0                20.0
        12                 0.0                10.0                20.0
        13                 0.0                 0.0                30.0
        14                10.0                 0.0                30.0
        15                10.0                10.0                30.0
        16                 0.0                10.0                30.0
        17                 0.0                 0.0                40.0
        18                10.0                 0.0                40.0
        19                10.0                10.0                40.0
        20                 0.0                10.0                40.0
/BRICK/1
         1         1         2         3         4         5         6         7         8
         2         5         6         7         8         9        10        11        12
         3         9        10        11        12        13        14        15        16
         4        13        14        15        16        17        18        19        20
/PART/1
gas column
         1         1
/MAT/LAW1/1
gas host
             1.2e-09
               1e-06                 0.0
# PORT-DIALECT block (port extension: /EOS on the port's elastic laws; real /EOS also wants a title card the port reader rejects)
/EOS/IDEAL-GAS/1
                 1.4              0.0001
/PROP/SOLID/1
gas
         1
                 1.1                0.05                 0.1
          
/GRNOD/NODE/1
all
         1         2         3         4         5         6         7         8         9        10
        11        12        13        14        15        16        17        18        19        20
/BCS/1
channel walls
   110 000         0         1
/GRNOD/NODE/2
bottom
         1         2         3         4
/BCS/2
closed end
   001 000         0         2
/GRNOD/NODE/9
piston
        17        18        19        20
/FUNCT/1
stroke
                 0.0                 0.0
                 8.0               -20.0
               100.0               -20.0
/IMPDISP/1
push
# funct_IDT       Dir   skew_ID sensor_ID  grnod_ID  frame_ID     Icoor
         1         Z                             9
                 1.0                 1.0
/TH/NODE/1
piston travel
DZ        VZ        
        17
/END
