#RADIOSS STARTER
/BEGIN
MAT83_solid_spotweld.inc                                                        
      2018         0
                  kg                  mm                  ms
                  kg                  mm                  ms
#---1----|----2----|----3----|----4----|----5----|----6----|----7----|----8----|----9----|---10----|
#---1----|----2----|----3----|----4----|----5----|----6----|----7----|----8----|----9----|---10----|
#-  1. MATERIALS:
#---1----|----2----|----3----|----4----|----5----|----6----|----7----|----8----|----9----|---10----|
/MAT/LAW83/5/2
solid spotweld
#              RHO_I
              7.8E-6
#                  E                         Imass
                1.18                             0
#  Fct_ID1                      Y_scale1            X_scale1               ALPHA                BETA
       200                             1                   1               0.627               1.434 
#                 RN                  RS   Fsmooth                Fcut
                 .17                .248         0                   0
#  Fct_IDN   Fct_IDS              XSCALE
         0         0                   0
#---1----|----2----|----3----|----4----|----5----|----6----|----7----|----8----|----9----|---10----|
#-  2. LOCAL_UNIT_SYSTEM:
#---1----|----2----|----3----|----4----|----5----|----6----|----7----|----8----|----9----|---10----|
/UNIT/2
unit for mat
#              MUNIT               LUNIT               TUNIT
                  kg                  mm                  ms
#---1----|----2----|----3----|----4----|----5----|----6----|----7----|----8----|----9----|---10----|
#-  3. GEOMETRICAL SETS:
#---1----|----2----|----3----|----4----|----5----|----6----|----7----|----8----|----9----|---10----|
/PROP/CONNECT/301
solid spotweld
#   Ismstr                                                                            True_Thickness
         4                                                                                         0
#---1----|----2----|----3----|----4----|----5----|----6----|----7----|----8----|----9----|---10----|
#-  4. FUNCTIONS:
#---1----|----2----|----3----|----4----|----5----|----6----|----7----|----8----|----9----|---10----|
/MOVE_FUNCT/200
MAT83_Curve
#            Ascalex             Fscaley             Ashiftx             Fshifty
                   1                   1                   0                   0
/FUNCT/200
MAT83 curve
#                  X                   Y
                   0               .8606
                .034               .8894
               .0679               .9128
               .1037               .9319
               .1413               .9457
               .1755               .9574
               .2141                .967
               .2552               .9734
               .2934               .9787
               .3352                .983
               .3739               .9862
               .4151               .9883
               .4572               .9915
                .496               .9926
               .5393               .9947
               .5816               .9957
               .6202               .9968
               .6627               .9979
               .7045               .9979
               .7456                   1
                   1                   1
#---1----|----2----|----3----|----4----|----5----|----6----|----7----|----8----|----9----|---10----|
#enddata
/END
#---1----|----2----|----3----|----4----|----5----|----6----|----7----|----8----|----9----|---10----|
