#RADIOSS STARTER
#---1----|----2----|----3----|----4----|----5----|----6----|----7----|----8----|----9----|---10----|
/BEGIN
Cantilever_beam                                                                 
      2021         0
                  Mg                  mm                   s
                  Mg                  mm                   s
#---1----|----2----|----3----|----4----|----5----|----6----|----7----|----8----|----9----|---10----|
#-  1. CONTROL CARDS:
#---1----|----2----|----3----|----4----|----5----|----6----|----7----|----8----|----9----|---10----|
/TITLE
Cantilever_beam
#---1----|----2----|----3----|----4----|----5----|----6----|----7----|----8----|----9----|---10----|
/DEF_SHELL
#   ISHELL    ISMSTR    ITHICK     IPLAS   ISTRAIN                        I_SH3N     IDRIL
         0         0         0         0         0                             0         0
#---1----|----2----|----3----|----4----|----5----|----6----|----7----|----8----|----9----|---10----|
/DEF_SOLID
#  I_SOLID    ISMSTR     ICPRE             ITETRA4  ITETRA10      IMAS    IFRAME
         0         0         0                   0         0         0         0
#---1----|----2----|----3----|----4----|----5----|----6----|----7----|----8----|----9----|---10----|
#-  2. MATERIALS:
#---1----|----2----|----3----|----4----|----5----|----6----|----7----|----8----|----9----|---10----|
/MAT/ELAST/1
Elastic Steel
#              RHO_I
              7.8E-9                   0
#                  E                  nu
              210000                  .3
#---1----|----2----|----3----|----4----|----5----|----6----|----7----|----8----|----9----|---10----|
#-  3. NODES:
#---1----|----2----|----3----|----4----|----5----|----6----|----7----|----8----|----9----|---10----|
/NODE
      1358                  60            1679.998                  10
      1359                  50            1679.998                  10
      1360                  50            1869.998                  10
      1361                  60            1869.998                  10
      1398                 110            1679.998                  10
      1399                 100            1679.998                  10
      1400                 100            1869.998                  10
      1401                 110            1869.998                  10
      1402                 110            1859.998                  10
      1403                 110            1849.998                  10
      1404                 110            1839.998                  10
      1405                 110            1829.998                  10
      1406                 110            1819.998                  10
      1407                 110            1809.998                  10
      1408                 110            1799.998                  10
      1409                 110            1789.998                  10
      1410                 110            1779.998                  10
      1411                 110            1769.998                  10
      1412                 110            1759.998                  10
      1413                 110            1749.998                  10
# ... 140 like lines cut
#---1----|----2----|----3----|----4----|----5----|----6----|----7----|----8----|----9----|---10----|
#-  4. BOUNDARY CONDITIONS:
#---1----|----2----|----3----|----4----|----5----|----6----|----7----|----8----|----9----|---10----|
/BCS/1
XYZ_1
#  Tra rot   skew_ID  grnod_ID
   111 111         0        21
/GRNOD/NODE/21
BCS_1
      1400      1401
#---1----|----2----|----3----|----4----|----5----|----6----|----7----|----8----|----9----|---10----|
/BCS/3
XYZ_2
#  Tra rot   skew_ID  grnod_ID
   111 111         0        22
/GRNOD/NODE/22
BCS_2
      1360      1361      1553
#---1----|----2----|----3----|----4----|----5----|----6----|----7----|----8----|----9----|---10----|
#-  5. PARTS:
#---1----|----2----|----3----|----4----|----5----|----6----|----7----|----8----|----9----|---10----|
/PART/1
Trias
         1         1         0
#---1----|----2----|----3----|----4----|----5----|----6----|----7----|----8----|----9----|---10----|
# SH3N elements of /PART/1/Trias:
#---1----|----2----|----3----|----4----|----5----|----6----|----7----|----8----|----9----|---10----|
/SH3N/1
         3      1400      1401      1402
         4      1400      1402      1437
         5      1437      1402      1403
         6      1437      1403      1436
         7      1436      1403      1404
         8      1436      1404      1435
         9      1435      1404      1405
        10      1435      1405      1434
        11      1434      1405      1406
        12      1434      1406      1433
        13      1433      1406      1407
        14      1433      1407      1432
        15      1432      1407      1408
        16      1432      1408      1431
        17      1431      1408      1409
        18      1431      1409      1430
        19      1430      1409      1410
        20      1430      1410      1429
        21      1429      1410      1411
        22      1429      1411      1428
# ... 172 like lines cut
#---1----|----2----|----3----|----4----|----5----|----6----|----7----|----8----|----9----|---10----|
#-  6. GEOMETRICAL SETS:
#---1----|----2----|----3----|----4----|----5----|----6----|----7----|----8----|----9----|---10----|
/PROP/SHELL/1
Trias
#   Ishell    Ismstr     Ish3n    Idrill                            P_thick_fail
         0         0         0         0                                       0
#                 hm                  hf                  hr                  dm                  dn
                   0                   0                   0                   0                   0
#        N   Istrain               Thick              Ashear              Ithick     Iplas
         0         0                  10                   0                   1         1
#---1----|----2----|----3----|----4----|----5----|----6----|----7----|----8----|----9----|---10----|
#-  7. FUNCTIONS:
#---1----|----2----|----3----|----4----|----5----|----6----|----7----|----8----|----9----|---10----|
/FUNCT_SMOOTH/1
Smooth Load Function
#            Ascalex             Fscaley             Ashiftx             Fshifty 
                   0                   0                   0                   0
#                  X                   Y
                   0                   0
                   1                   1
#---1----|----2----|----3----|----4----|----5----|----6----|----7----|----8----|----9----|---10----|
#-  8. CONCENTRATED LOADS:
#---1----|----2----|----3----|----4----|----5----|----6----|----7----|----8----|----9----|---10----|
/CLOAD/1
CLOAD_1
#funct_IDT       Dir   skew_ID sensor_ID  grnod_ID                       Ascalex             Fscaley
         1         Z         0         0         1                            .1               -1000
/GRNOD/NODE/1
CLOAD_1
      1438
/CLOAD/2
CLOAD_2
#funct_IDT       Dir   skew_ID sensor_ID  grnod_ID                       Ascalex             Fscaley
         1         Z         0         0         2                            .1               -1000
/GRNOD/NODE/2
CLOAD_2
      1552
#---1----|----2----|----3----|----4----|----5----|----6----|----7----|----8----|----9----|---10----|
#-  9. RIGID BODIES:
#---1----|----2----|----3----|----4----|----5----|----6----|----7----|----8----|----9----|---10----|
/RBODY/1
10mm
#     RBID     ISENS     NSKEW    ISPHER                MASS   Gnod_id     IKREM      ICOG   Surf_id
      1438         0         0         0                   0        31         0         3         0
#                Jxx                 Jyy                 Jzz
                1E-4                1E-4                1E-4
#                Jxy                 Jyz                 Jxz
                   0                   0                   0
#  Ioptoff               Ifail
         0         0         0
/GRNOD/NODE/31
RBODY 1
      1398      1399
#---1----|----2----|----3----|----4----|----5----|----6----|----7----|----8----|----9----|---10----|
/RBODY/2
5mm
#     RBID     ISENS     NSKEW    ISPHER                MASS   Gnod_id     IKREM      ICOG   Surf_id
      1552         0         0         0                   0        32         0         3         0
#                Jxx                 Jyy                 Jzz
                1E-4                1E-4                1E-4
#                Jxy                 Jyz                 Jxz
                   0                   0                   0
#  Ioptoff               Ifail
         0         0         0
/GRNOD/NODE/32
RBODY 2
      1358      1359      1476
#---1----|----2----|----3----|----4----|----5----|----6----|----7----|----8----|----9----|---10----|
#- 10. TIME HISTORIES:
#---1----|----2----|----3----|----4----|----5----|----6----|----7----|----8----|----9----|---10----|
/TH/NODE/1
TH_NODE
#     var1      var2      var3      var4      var5      var6      var7      var8      var9     var10
DEF       
#    NODid     Iskew                                           NODname
      1438         010mm                                                                            
      1552         05mm                                                                             
#---1----|----2----|----3----|----4----|----5----|----6----|----7----|----8----|----9----|---10----|
/TH/RBODY/2
TH_RBODY
#     var1      var2      var3      var4      var5      var6      var7      var8      var9     var10
DEF       
#     Obj1      Obj2      Obj3      Obj4      Obj5      Obj6      Obj7      Obj8      Obj9     Obj10
         1         2
#---1----|----2----|----3----|----4----|----5----|----6----|----7----|----8----|----9----|---10----|
/END
#---1----|----2----|----3----|----4----|----5----|----6----|----7----|----8----|----9----|---10----|
