#RADIOSS STARTER
/BEGIN
ICE_MODEL_inc.rad                                                               
      2022         0
                  Mg                  mm                   s
                  Mg                  mm                   s
#---1----|----2----|----3----|----4----|----5----|----6----|----7----|----8----|----9----|---10----|
#---1----|----2----|----3----|----4----|----5----|----6----|----7----|----8----|----9----|---10----|
#-  1. MATERIALS:
#---1----|----2----|----3----|----4----|----5----|----6----|----7----|----8----|----9----|---10----|
/MAT/HYD_JCOOK/10000000
Ice
#              RHO_O
           9.167E-10
#                 E                   nu
                8304                  .2
#                  A                   B                   n              epsmax              sigmax
                10.3                   0                   0                   0                   0
#               Pmin
                 -.5
#                  C           EPS_DOT_0                   M               Tmelt               Tmax
                   0                   0                   0                   0                   0
#              RHOCP
                   0
/EOS/POLYNOMIAL/10000000
Conversion of Mat Law 4 in RADIOSS 11.0 or greater
#                 C0                  C1                  C2                  C3
                   0                2500                   0                   0
#                 C4                  C5                  E0                 Psh               RHO_0
                   0                   0                   0                   0                   0
#---1----|----2----|----3----|----4----|----5----|----6----|----7----|----8----|----9----|---10----|
#-  2. NODES:
#---1----|----2----|----3----|----4----|----5----|----6----|----7----|----8----|----9----|---10----|
/NODE
  10000000     445.08784495039     113.86733334973    -126.23881649351
  10000001     464.33978715716     118.48931574461    -126.23881649351
  10000002     483.59172936392     123.11129813949    -126.23881649351
  10000003     422.56766764965     122.85852984041    -126.23881649351
  10000004     441.81960985641      127.4805122353    -126.23881649351
  10000005     461.07155206318     132.10249463018    -126.23881649351
  10000006     480.32349426994     136.72447702506    -126.23881649351
  10000007     419.29943255567     136.47170872598    -126.23881649351
  10000008     438.55137476243     141.09369112086    -126.23881649351
  10000009     457.80331696919     145.71567351574    -126.23881649351
  10000010     477.05525917596     150.33765591063    -126.23881649351
  10000011     496.30720138369     154.95963830574    -126.23881649351
  10000012     416.03119746168     150.08488761155    -126.23881649351
  10000013     435.28313966845     154.70687000643    -126.23881649351
  10000014     454.53508187521     159.32885240131    -126.23881649351
  10000015     473.78702408197     163.95083479619    -126.23881649351
  10000016     493.03896628971     168.57281719131    -126.23881649351
  10000017      412.7629623677     163.69806649712    -126.23881649351
  10000018     432.01490457446       168.320048892    -126.23881649351
  10000019     451.26684678123     172.94203128688    -126.23881649351
# ... 3435 like lines cut
#---1----|----2----|----3----|----4----|----5----|----6----|----7----|----8----|----9----|---10----|
#-  3. PARTS:
#---1----|----2----|----3----|----4----|----5----|----6----|----7----|----8----|----9----|---10----|
/PART/10000000
Ice-90
  10000000  10000000         0
#---1----|----2----|----3----|----4----|----5----|----6----|----7----|----8----|----9----|---10----|
# SPHCEL elements of /PART/10000000/Ice-90:
#---1----|----2----|----3----|----4----|----5----|----6----|----7----|----8----|----9----|---10----|
/SPHCEL/10000000
  10001728
  10001729
  10001730
  10001731
  10001732
  10001733
  10001734
  10001735
  10001736
  10001737
  10001738
  10001739
  10001740
  10001741
  10001742
  10001743
  10001744
  10001745
  10001746
  10001747
# ... 1707 like lines cut
#---1----|----2----|----3----|----4----|----5----|----6----|----7----|----8----|----9----|---10----|
/PART/10000001
Ice-45
  10000000  10000000         0
#---1----|----2----|----3----|----4----|----5----|----6----|----7----|----8----|----9----|---10----|
# SPHCEL elements of /PART/10000001/Ice-45:
#---1----|----2----|----3----|----4----|----5----|----6----|----7----|----8----|----9----|---10----|
/SPHCEL/10000001
  10000000
  10000001
  10000002
  10000003
  10000004
  10000005
  10000006
  10000007
  10000008
  10000009
  10000010
  10000011
  10000012
  10000013
  10000014
  10000015
  10000016
  10000017
  10000018
  10000019
# ... 1708 like lines cut
#---1----|----2----|----3----|----4----|----5----|----6----|----7----|----8----|----9----|---10----|
#-  4. GEOMETRICAL SETS:
#---1----|----2----|----3----|----4----|----5----|----6----|----7----|----8----|----9----|---10----|
/PROP/TYPE34/10000000
Ice
#                 mp                  qa                  qb            alpha_cs   Skew_ID
         1.778674E-6                2E-5                1E-5                   0         0
#    order                   h
         0                  14
#---1----|----2----|----3----|----4----|----5----|----6----|----7----|----8----|----9----|---10----|
#-  5. INTERFACES:
#---1----|----2----|----3----|----4----|----5----|----6----|----7----|----8----|----9----|---10----|
/INTER/TYPE7/2
contact_ice
#  Slav_id   Mast_id      Istf      Ithe      Igap                Ibag      Idel     Icurv      Iadm
        11        12         0         0         1                   0         2         0         0
#          Fscalegap             Gap_max             Fpenmax
                   0                   0                   0
#              Stmin               Stmax          %mesh_size               dtmin  Irem_gap   Irem_i2
                   0                   0                   0                   0         0         0
#              Stfac                Fric              Gapmin              Tstart               Tstop
                   0                  .1                   1                   0                   0
#      IBC                        Inacti                VisS                VisF              Bumult
       000                             0                   0                   0                   0
#    Ifric    Ifiltr               Xfreq     Iform   sens_ID
         0         0                   0         0         0
/GRNOD/PART/11
ice nodes
  10000000  10000001
/SURF/PART/12
structure
         1         2         3
#---1----|----2----|----3----|----4----|----5----|----6----|----7----|----8----|----9----|---10----|
#enddata
/END
#---1----|----2----|----3----|----4----|----5----|----6----|----7----|----8----|----9----|---10----|
