#RADIOSS STARTER
##========================================================================================
##
## Radioss Input Deck Generated by HyperMesh Version  : 2019.1.1-HWDesktop
## Generated using HyperMesh-Radioss Template Version : 2019.1.1_hotfix-HWDesktop
## Date: 09-19-2019   Time: 11:27:44
##
##========================================================================================
##
##
/BEGIN
rdv_0110_friction
      2019         0
                  Mg                  mm                   s
                  Mg                  mm                   s
##
##--------------------------------------------------------------------------------------------------
## Material Law No 1. ELASTIC
##--------------------------------------------------------------------------------------------------
/MAT/ELAST/1
Steel                                                                                               
7.75000000000000E-09
            193000.0                 0.3
##--------------------------------------------------------------------------------------------------
## NODES
##--------------------------------------------------------------------------------------------------
/NODE
      1000               262.7               243.3                25.3
      1001               262.7               243.3                12.6
      1002               262.7               243.3                -0.1
      1003               250.0               243.3                -0.1
      1004               250.0               243.3                12.6
      1005               237.3               243.3                -0.1
      1006               237.3               243.3                12.6
      1007               224.6               243.3                -0.1
      1008               224.6               243.3                12.6
      1009               211.9               243.3                -0.1
      1010               211.9               243.3                12.6
      1011               199.2               243.3                -0.1
      1012               199.2               243.3                12.6
      1013               186.5               243.3                -0.1
      1014               186.5               243.3                12.6
      1015               173.8               243.3                -0.1
      1016               173.8               243.3                12.6
      1017               161.1               243.3                -0.1
      1018               161.1               243.3                12.6
      1019               148.4               243.3                -0.1
# ... 1592 like lines cut
##--------------------------------------------------------------------------------------------------
## Boundary Conditions
##--------------------------------------------------------------------------------------------------
##HWCOLOR loadcollectors 1 49
/BCS/1
BCS Y                                                                                               
   010 000         0        39
/GRNOD/NODE/39
grnodnode.17                                                                                        
      2560      2602      2603      3823      3824      3825      3826      3827      3828      3829
      3830      3831      3832      3833      3834      3835      3836      3837      3838      3839
      3840      3841      3842      3843      3844      3845      3846      3847      3848      3849
      3850      3851      3852      3853      3854      3855      3856      3857      3858      3859
      3860      3861      3862      3863      3864      3865      3866      3867      3868      3869
      3870      3871      3872      3873      3874      3875      3876      3877      3878      3879
      3880      3881      3882
##HWCOLOR loadcollectors 2 49
/BCS/2
SPC                                                                                                 
   111 111         0        37
/GRNOD/NODE/37
grnodnode.16                                                                                        
      4609
##--------------------------------------------------------------------------------------------------
## Solid Elements (Hexaedron)
##--------------------------------------------------------------------------------------------------
/BRICK/1
      2141      1002      2583      2607      1001      1003      2624      2625      1004
      2142      1003      2624      2625      1004      1005      2628      2629      1006
      2143      1005      2628      2629      1006      1007      2632      2633      1008
      2144      1007      2632      2633      1008      1009      2636      2637      1010
      2145      1009      2636      2637      1010      1011      2640      2641      1012
      2146      1011      2640      2641      1012      1013      2644      2645      1014
      2147      1013      2644      2645      1014      1015      2648      2649      1016
      2148      1015      2648      2649      1016      1017      2652      2653      1018
      2149      1017      2652      2653      1018      1019      2656      2657      1020
      2150      1019      2656      2657      1020      1021      2660      2661      1022
      2151      1021      2660      2661      1022      1023      2664      2665      1024
      2152      1023      2664      2665      1024      1025      2668      2669      1026
      2153      1025      2668      2669      1026      1027      2672      2673      1028
      2154      1027      2672      2673      1028      1029      2676      2677      1030
      2155      1029      2676      2677      1030      1031      2680      2681      1032
      2156      1031      2680      2681      1032      1033      2684      2685      1034
      2157      1033      2684      2685      1034      1035      2688      2689      1036
      2158      1035      2688      2689      1036      1037      2692      2693      1038
      2159      1037      2692      2693      1038      1039      2696      2697      1040
      2160      1039      2696      2697      1040      1041      2700      2701      1042
# ... 780 like lines cut
/BRICK/2
      2941      4382      4383      4378      4379      4464      4465      4466      4467
      2942      4383      4374      4375      4378      4465      4468      4469      4466
      2943      4366      4367      4383      4382      4470      4471      4465      4464
      2944      4367      4368      4374      4383      4471      4472      4468      4465
      2945      4379      4380      4384      4382      4467      4473      4474      4464
      2946      4382      4384      4365      4366      4464      4474      4475      4470
      2947      4337      4385      4381      4336      4476      4477      4478      4479
      2948      4385      4384      4380      4381      4477      4474      4473      4478
      2949      4338      4364      4385      4337      4480      4481      4477      4476
      2950      4364      4365      4384      4385      4481      4475      4474      4477
      2951      4386      4388      4330      4331      4482      4483      4484      4485
      2952      4388      4377      4329      4330      4483      4486      4487      4484
      2953      4387      4389      4388      4386      4488      4489      4483      4482
      2954      4389      4376      4377      4388      4489      4490      4486      4483
      2955      4379      4378      4389      4387      4467      4466      4489      4488
      2956      4378      4375      4376      4389      4466      4469      4490      4489
      2957      4334      4390      4333      4179      4491      4492      4493      4494
      2958      4390      4391      4332      4333      4492      4495      4496      4493
      2959      4391      4386      4331      4332      4495      4482      4485      4496
      2960      4336      4381      4392      4335      4479      4478      4497      4498
# ... 101 like lines cut
##--------------------------------------------------------------------------------------------------
## General Solid Property Set (pid 14)
##--------------------------------------------------------------------------------------------------
/PROP/SOLID/1
property1                                                                                           
        24         2                                                           0                 0.0
                                                                                                    
                                       1
##--------------------------------------------------------------------------------------------------
## Functions
##--------------------------------------------------------------------------------------------------
##HWCOLOR curves 1 3
/FUNCT/1
Imp_Vel_Z                                                                                           
                 0.0                 0.0
1.00000000000000E-06-1.0066960000000E-03
2.00000000000000E-06        -0.004026746
3.00000000000000E-06        -0.009060029
4.00000000000000E-06        -0.016106347
5.00000000000000E-06        -0.025165421
6.00000000000000E-06        -0.036236895
7.00000000000000E-06        -0.049320331
8.00000000000000E-06        -0.064415213
9.00000000000000E-06        -0.081520944
1.00000000000000E-05         -0.10063685
1.10000000000000E-05        -0.121762176
1.20000000000000E-05        -0.144896087
1.30000000000000E-05         -0.17003767
1.40000000000000E-05        -0.197185934
1.50000000000000E-05        -0.226339805
1.60000000000000E-05        -0.257498134
1.70000000000000E-05         -0.29065969
1.80000000000000E-05        -0.325823163
1.90000000000000E-05        -0.362987167
# ... 982 like lines cut
##HWCOLOR curves 2 11
/FUNCT/2
imp_vel_y                                                                                           
                 0.0                 0.0
9.00000000000000E-06          0.00557631
1.80000000000000E-05          0.02230501
2.70000000000000E-05          0.05018545
3.60000000000000E-05          0.08921653
4.50000000000000E-05           0.1393967
5.40000000000000E-05          0.20072398
6.30000000000000E-05          0.27319595
7.20000000000000E-05          0.35680976
8.10000000000000E-05          0.45156209
9.00000000000000E-05          0.55744922
9.90000000000000E-05          0.67446695
1.08000000000000E-04          0.80261068
1.17000000000000E-04          0.94187533
1.26000000000000E-04          1.09225542
1.35000000000000E-04            1.253745
1.44000000000000E-04           1.4263377
1.53000000000000E-04          1.61002671
1.62000000000000E-04          1.80480478
1.71000000000000E-04          2.01066421
# ... 982 like lines cut
##--------------------------------------------------------------------------------------------------
## Interface Type24
##--------------------------------------------------------------------------------------------------
##HMGROUP  1 4
/INTER/TYPE24/1
Type_24                                                                                             
         1         2         4                                                  
                                                                             0.0                 0.0
                                                 0                              
                                    0.05                                                            
       000                             5                    
                                                            
##------------------------------------------------------------------------------
## Surf Segments
##------------------------------------------------------------------------------
/SURF/SEG/1
Plate to rigid                                                                                      
         1      1002      2583      2624      1003
         2      2583      2584      2743      2624
         3      2584      2585      2803      2743
         4      2585      2586      2863      2803
         5      2586      2587      2923      2863
         6      2587      2588      2985      2923
         7      2588      2589      2986      2985
         8      2589      2590      3103      2986
         9      2590      2591      3165      3103
        10      2591      2592      3166      3165
        11      2592      2593      3285      3166
        12      2593      2594      3286      3285
        13      2594      2595      3403      3286
        14      2595      2596      3465      3403
        15      2596      2597      3466      3465
        16      2597      2598      3583      3466
        17      2598      2599      3643      3583
        18      2599      2600      3703      3643
        19      2600      2601      3763      3703
        20      2601      2602      3823      3763
# ... 380 like lines cut
##------------------------------------------------------------------------------
## Surf Segments
##------------------------------------------------------------------------------
/SURF/SEG/2
rigid to plate                                                                                      
         1      4382      4379      4378      4383
         2      4379      4382      4384      4380
         3      4382      4366      4365      4384
         4      4436      4365      4366      4431
         5      4435      4364      4365      4436
         6      4436      4438      4437      4435
         7      4340      4339      4435      4437
         8      4341      4340      4437      4422
         9      4342      4341      4422      4427
        10      4427      4422      4421      4428
        11      4428      4421      4420      4423
        12      4432      4420      4421      4438
        13      4420      4432      4434      4419
        14      4419      4434      4417      4416
        15      4434      4433      4418      4417
        16      4417      4418      4460      4462
        17      4461      4463      4462      4460
        18      4454      4455      4463      4461
        19      4455      4454      4456      4458
        20      4457      4459      4458      4456
# ... 101 like lines cut
##--------------------------------------------------------------------------------------------------
## N Noded Rigid Bodies
##--------------------------------------------------------------------------------------------------
##HMMOVE elements 2 3
/RBODY/2
                                                                                                    
      4609         0                                                35                              
                                                            
                                                            
                    
##--------------------------------------------------------------------------------------------------
## Imposed Velocities
##--------------------------------------------------------------------------------------------------
##HWCOLOR loadcollectors 3 5
/IMPVEL/3
imp_vel_z                                                                                           
         1         Z         0                  32                    
                 1.0                 1.0                                        
/GRNOD/NODE/32
grnodnode.14                                                                                        
      1000      1043      1044      1045      1046      1047      1048      1049      1050      1051
      1052      1053      1054      1055      1056      1057      1058      1059      1060      1061
      1062      2560      2561      2562      2563      2564      2565      2566      2567      2568
      2569      2570      2571      2572      2573      2574      2575      2576      2577      2578
      2579      2703      2705      2707      2709      2711      2713      2715      2717      2719
      2721      2723      2725      2727      2729      2731      2733      2735      2737      2739
      2741      2783      2784      2785      2786      2787      2788      2789      2790      2791
      2792      2793      2794      2795      2796      2797      2798      2799      2800      2801
      2802      2843      2844      2845      2846      2847      2848      2849      2850      2851
      2852      2853      2854      2855      2856      2857      2858      2859      2860      2861
      2862      2903      2904      2905      2906      2907      2908      2909      2910      2911
      2912      2913      2914      2915      2916      2917      2918      2919      2920      2921
      2922      2963      2964      2965      2966      2967      2968      2969      2970      2971
      2972      2973      2974      2975      2976      2977      2978      2979      2980      2981
      2982      3063      3064      3065      3066      3067      3068      3069      3070      3071
      3072      3073      3074      3075      3076      3077      3078      3079      3080      3081
      3082      3083      3084      3085      3086      3087      3088      3089      3090      3091
      3092      3093      3094      3095      3096      3097      3098      3099      3100      3101
      3102      3143      3144      3145      3146      3147      3148      3149      3150      3151
      3152      3153      3154      3155      3156      3157      3158      3159      3160      3161
# ... 25 like lines cut
##HWCOLOR loadcollectors 4 5
/IMPVEL/4
imp-vel_Y                                                                                           
         2         Y         0                  31                    
                 1.0                 1.0                                        
/GRNOD/NODE/31
grnodnode.13                                                                                        
      1000      1001      1002      1003      1004      1005      1006      1007      1008      1009
      1010      1011      1012      1013      1014      1015      1016      1017      1018      1019
      1020      1021      1022      1023      1024      1025      1026      1027      1028      1029
      1030      1031      1032      1033      1034      1035      1036      1037      1038      1039
      1040      1041      1042      1043      1044      1045      1046      1047      1048      1049
      1050      1051      1052      1053      1054      1055      1056      1057      1058      1059
      1060      1061      1062
##--------------------------------------------------------------------------------------------------
## Sets
##--------------------------------------------------------------------------------------------------
/GRNOD/PART/35
rigid923nodeset                                                                                     
         2
##--------------------------------------------------------------------------------------------------
## Parts
##--------------------------------------------------------------------------------------------------
##HWCOLOR components 1 6
/PART/1
top plate                                                                                           
         1         1                              
##HWCOLOR components 2 7
/PART/2
Rigid bottom plate                                                                                  
         1         1                              
##--------------------------------------------------------------------------------------------------
## Time History - Nodes
##--------------------------------------------------------------------------------------------------
/TH/NODE/1
Y-pos                                                                                               
DEF       
      1022         0                                                                                
##--------------------------------------------------------------------------------------------------
## Time History - Elems
##--------------------------------------------------------------------------------------------------
##--------------------------------------------------------------------------------------------------
## Time History - Parts
##--------------------------------------------------------------------------------------------------
##--------------------------------------------------------------------------------------------------
## Time History - Frames
##--------------------------------------------------------------------------------------------------
##--------------------------------------------------------------------------------------------------
## Time History - Interfaces and Rwalls
##--------------------------------------------------------------------------------------------------
/TH/INTER/4
interface                                                                                           
DEF       
         1
##--------------------------------------------------------------------------------------------------
## Time History - Cyl Joints
##--------------------------------------------------------------------------------------------------
##--------------------------------------------------------------------------------------------------
## Time History - Accelerometer
##--------------------------------------------------------------------------------------------------
##--------------------------------------------------------------------------------------------------
## Time History - Monv and Sections
##--------------------------------------------------------------------------------------------------
##--------------------------------------------------------------------------------------------------
## Time History - Subsets
##--------------------------------------------------------------------------------------------------
##--------------------------------------------------------------------------------------------------
## Time History - Control vols
##--------------------------------------------------------------------------------------------------
##--------------------------------------------------------------------------------------------------
## Time History - Cross Sections
##--------------------------------------------------------------------------------------------------
##--------------------------------------------------------------------------------------------------
## Time History - Rigid Walls
##--------------------------------------------------------------------------------------------------
##--------------------------------------------------------------------------------------------------
## Time History - Load Collectors
##--------------------------------------------------------------------------------------------------
##--------------------------------------------------------------------------------------------------
## Time History - Sets
##--------------------------------------------------------------------------------------------------
##--------------------------------------------------------------------------------------------------
## Time History - Element Clusters
##--------------------------------------------------------------------------------------------------
##------------------------------------------------------------------------------
## End Of Radioss Block Deck
##------------------------------------------------------------------------------
/END
