#RADIOSS STARTER
/BEGIN
IMPLRING
      2022         0
                  Mg                  mm                   s
                  Mg                  mm                   s
/NODE
#   node_ID                   X                   Y                   Z
         1                 0.0                 0.0                 0.0
         2                 0.0                 0.0               100.0
         3                 0.0                 0.0               200.0
         4                 0.0                 0.0               300.0
         5                 0.0                 0.0               400.0
         6               300.0               300.0                 0.0
         7                75.0                 0.0               300.0
         8                75.0                 0.0               400.0
         9               150.0                 0.0               300.0
        10               150.0                 0.0               400.0
        11               200.0                 0.0                 0.0
        12               200.0                 0.0               400.0
/BEAM/1
         1         1         2         6
         2         2         3         6
         3         3         4         6
         4         4         5         6
/SH3N/2
       101         4         7         8
       102         4         8         5
       103         7         9        10
       104         7        10         8
/TRUSS/3
       201        11         3
/SPRING/4
       301        12         5
/PART/1
mast beams
         1         1
/PART/2
antenna panel
         2         1
/PART/3
diagonal brace
         3         1
/PART/4
guy spring
         4         1
/MAT/LAW1/1
steel
             7.8e-06
               210.0                 0.3
/PROP/BEAM/1
mast 10x10
          
          
               100.0              833.33              833.33              1405.8
          
/PROP/SHELL/2
panel
#    Ishell    Ismstr     Ish3n    Idrill
         1         0         0         0
#                   hm                  hf                  hr
                0.01                0.01                0.01
#         N   Istrain               Thick
         3         0                 2.0
/PROP/TRUSS/3
brace
                25.0
# PORT-DIALECT block (port simplified TYPE4 spring: real layout splits Mass and K/C across two cards)
/PROP/SPRING/4
guy
                0.01                0.02                 0.0
/GRNOD/NODE/1
grounds
         1        11        12
/GRNOD/NODE/2
mast tip
         5
/BCS/1
clamp grounds
   111 111         0         1
/FUNCT/1
step on at t=0
                 0.0                 1.0
              1000.0                 1.0
/CLOAD/1
side kick
         1         X                             2                                              0.05
/END
