/BEGIN
two meshed cubes
/NODE
1 0.0 0.0 0.0
2 0.5 0.0 0.0
3 1.0 0.0 0.0
4 0.0 0.5 0.0
5 0.5 0.5 0.0
6 1.0 0.5 0.0
7 0.0 1.0 0.0
8 0.5 1.0 0.0
9 1.0 1.0 0.0
10 0.0 0.0 0.5
11 0.5 0.0 0.5
12 1.0 0.0 0.5
13 0.0 0.5 0.5
14 0.5 0.5 0.5
15 1.0 0.5 0.5
16 0.0 1.0 0.5
17 0.5 1.0 0.5
18 1.0 1.0 0.5
19 0.0 0.0 1.0
20 0.5 0.0 1.0
# ... 34 like lines cut
/BRICK/1
1 1 2 5 4 10 11 14 13
2 2 3 6 5 11 12 15 14
3 4 5 8 7 13 14 17 16
4 5 6 9 8 14 15 18 17
5 10 11 14 13 19 20 23 22
6 11 12 15 14 20 21 24 23
7 13 14 17 16 22 23 26 25
8 14 15 18 17 23 24 27 26
/BRICK/2
101 101 102 105 104 110 111 114 113
102 102 103 106 105 111 112 115 114
103 104 105 108 107 113 114 117 116
104 105 106 109 108 114 115 118 117
105 110 111 114 113 119 120 123 122
106 111 112 115 114 120 121 124 123
107 113 114 117 116 122 123 126 125
108 114 115 118 117 123 124 127 126
/PART/1
lower
1 1
/PART/2
upper
2 1
/MAT/LAW1/1
steel elastic
7.8e-6
210. 0.3
/PROP/SOLID/1
solid
1.1 0.05 0.1
/PROP/SOLID/2
solid
1.1 0.05 0.1
/GRNOD/PART/2
upper all
2
/SURF/PART/1
lower surf
1
/GRNOD/NODE/1
base
1 2 3 4 5 6 7 8 9
/BCS/1
clamp base
111 111 0 1
/INIVEL/TRA/1
fall
0 0 -1.0 2
/INTER/TYPE24/1
impact
2 1 0 0
1.0 0.0 0.1
/END
