#RADIOSS STARTER
/BEGIN
notched strip
/NODE
         1               0.0               0.0               0.0
         2              10.0               0.0               0.0
         3              20.0               0.0               0.0
         4              30.0               0.0               0.0
         5               0.0              10.0               0.0
         6              10.0              10.0               0.0
         7              20.0              10.0               0.0
         8              30.0              10.0               0.0
/SHELL/1
         1         1         2         6         5
         3         3         4         8         7
/SHELL/2
         2         2         3         7         6
/PART/1
strip
         1         1
/PART/2
notch
         1         2
/MAT/LAW27/1
glass
   2.5e-6
     70000.0      0.22
       0.0       0.0       0.0       0.0       0.0
       0.0       0.0       0.0
     0.004     0.008       0.9      0.10
     0.004     0.008      0.85      0.10
/MAT/LAW27/2
weak glass
   2.5e-6
     70000.0      0.22
       0.0       0.0       0.0       0.0       0.0
       0.0       0.0       0.0
     0.001     0.005       0.9      0.10
    0.0012     0.006      0.85      0.10
/PROP/SHELL/1
sheet
         1.0         3
/GRNOD/NODE/1
root
1 5
/GRNOD/NODE/2
tip
4 8
/BCS/1
root
       111       111         0         1
/BCS/2
tip
       011       111         0         2
/FUNCT/1
ramp
       0.0       0.0
       2.0       2.0
/IMPDISP/1
pull
         1         X         2      0.03
/END
