#RADIOSS STARTER
##========================================================================================
##
## Radioss Input Deck Generated by HyperMesh Version  : 2022.2.0.27
## Generated using HyperMesh-Radioss Template Version : 2022.2.0.27
## Date: 03-27-2023   Time: 15:36:33
##
##========================================================================================
##
##--------------------------------------------------------------------------------------------------
#--------------------------------------------------------------------------------------------------|
#- RADIOSS DECK WRITTEN BY HyperCrash
#HyperCrash 2017.2 (64 bits) 
#Tue Apr 17 12:18:14 2018
#-
#-
#- DATE	Tue Apr 17 12:18:14 2018
#--------------------------------------------------------------------------------------------------|
##
/BEGIN
#Runname                                                                        
fsi_drop_container                                                              
#   Invers      Irun
      2023         0
#    Input_mass_unit   Input_length_unit     Input_time_unit
                  Mg                  mm                   s
#     Work_mass_unit    Work_length_unit      Work_time_unit
                  Mg                  mm                   s
#---1----|----2----|----3----|----4----|----5----|----6----|----7----|----8----|----9----|---10----|
/TITLE
                                                                                                    
##
#---1----|----2----|----3----|----4----|----5----|----6----|----7----|----8----|----9----|---10----|
/NODE
#  node_ID                  Xc                  Yc                  Zc
   1056263     36.728542111569     252.16995332553    -32.221059311408
   1056264     36.654807053916     257.01502035837    -31.369930903339
   1056265     36.581071996264     261.86008739121    -30.518802495269
   1056266     36.507336938611     266.70515442405    -29.667674087199
   1056267     36.433601880958     271.55022145689     -28.81654567913
   1056268     36.359866823305     276.39528848972     -27.96541727106
   1056269     36.286131765653     281.24035552256    -27.114288862991
   1056270        36.212396708      286.0854225554    -26.263160454921
   1056271     36.138661650347     290.93048958824    -25.412032046852
   1056272     36.064926592695     295.77555662108    -24.560903638782
   1056273     35.991191535042     300.62062365391    -23.709775230712
   1056274     35.917456477389     305.46569068675    -22.858646822643
   1056275     35.843721419736     310.31075771959    -22.007518414573
   1056276     35.769986362084     315.15582475243    -21.156390006504
   1056277     35.696251304431     320.00089178527    -20.305261598434
   1056278     35.622516246778      324.8459588181    -19.454133190364
   1056279     35.548781189125     329.69102585094    -18.603004782295
   1056280     35.475046131473     334.53609288378    -17.751876374225
   1056281      35.40131107382     339.38115991662    -16.900747966156
   1056282     35.327576016167     344.22622694946    -16.049619558086
# ... 97493 like lines cut
#---1----|----2----|----3----|----4----|----5----|----6----|----7----|----8----|----9----|---10----|
# SH3N elements of /PART/85/Vessel:
/SH3N/85
#  tria_ID  node_ID1  node_ID2  node_ID3                                   phi_s               Thick
    839244   1056353   1056354   1056352                                     0.0                 0.0
    839253   1056291   1056360   1056359                                     0.0                 0.0
    839257   1056359   1056292   1056291                                     0.0                 0.0
    839273   1056366   1056371   1056365                                     0.0                 0.0
    839277   1056343   1056375   1056344                                     0.0                 0.0
    839285   1056379   1056349   1056380                                     0.0                 0.0
    839297   1056392   1056382   1056393                                     0.0                 0.0
    839314   1056401   1056384   1056403                                     0.0                 0.0
    839318   1056404   1056406   1056405                                     0.0                 0.0
    839330   1056416   1056333   1056382                                     0.0                 0.0
    839338   1056420   1056342   1056419                                     0.0                 0.0
    839348   1056425   1056344   1056427                                     0.0                 0.0
    839349   1056427   1056426   1056425                                     0.0                 0.0
    839360   1056446   1056436   1056447                                     0.0                 0.0
    839373   1056456   1056439   1056455                                     0.0                 0.0
    839404   1056475   1056464   1056465                                     0.0                 0.0
    839405   1056464   1056435   1056434                                     0.0                 0.0
    839438   1056504   1056482   1056503                                     0.0                 0.0
    839451   1056512   1056487   1056511                                     0.0                 0.0
    839455   1056513   1056325   1056518                                     0.0                 0.0
# ... 24 like lines cut
#---1----|----2----|----3----|----4----|----5----|----6----|----7----|----8----|----9----|---10----|
# SHELL elements of /PART/85/Vessel:
/SHELL/85
# shell_ID  node_ID1  node_ID2  node_ID3  node_ID4                         phi_s               Thick
    839239   1056347   1056346   1056352   1056350                           0.0                 0.0
    839240   1056346   1056345   1056353   1056352                           0.0                 0.0
    839241   1056345   1056297   1056296   1056353                           0.0                 0.0
    839242   1056350   1056352   1056354   1056351                           0.0                 0.0
    839243   1056296   1056295   1056354   1056353                           0.0                 0.0
    839245   1056351   1056354   1056293   1056292                           0.0                 0.0
    839246   1056354   1056295   1056294   1056293                           0.0                 0.0
    839247   1056355   1056288   1056287   1056357                           0.0                 0.0
    839248   1056357   1056287   1056286   1056349                           0.0                 0.0
    839249   1056351   1056356   1056358   1056350                           0.0                 0.0
    839250   1056356   1056355   1056357   1056358                           0.0                 0.0
    839251   1056350   1056358   1056348   1056347                           0.0                 0.0
    839252   1056358   1056357   1056349   1056348                           0.0                 0.0
    839254   1056290   1056289   1056360   1056291                           0.0                 0.0
    839255   1056359   1056360   1056355   1056356                           0.0                 0.0
    839256   1056360   1056289   1056288   1056355                           0.0                 0.0
    839258   1056359   1056356   1056351   1056292                           0.0                 0.0
    839259   1056365   1056364   1056368   1056367                           0.0                 0.0
    839260   1056364   1056362   1056361   1056368                           0.0                 0.0
    839261   1056367   1056368   1056340   1056339                           0.0                 0.0
# ... 1490 like lines cut
#---1----|----2----|----3----|----4----|----5----|----6----|----7----|----8----|----9----|---10----|
# BRICK elements of /PART/86/Water-Air:
/BRICK/86
# brick_ID  node_ID1  node_ID2  node_ID3  node_ID4  node_ID5  node_ID6  node_ID7  node_ID8
    842079   1057547   1057549   1057551   1057546   1059185   1059186   1059187   1059188
    842080   1059185   1059186   1059187   1059188   1059189   1059190   1059191   1059192
    842081   1059189   1059190   1059191   1059192   1059193   1059194   1059195   1059196
    842082   1059193   1059194   1059195   1059196   1059197   1059198   1059199   1059200
    842083   1059197   1059198   1059199   1059200   1059201   1059202   1059203   1059204
    842084   1059201   1059202   1059203   1059204   1059205   1059206   1059207   1059208
    842085   1059205   1059206   1059207   1059208   1059209   1059210   1059211   1059212
    842086   1059209   1059210   1059211   1059212   1059213   1059214   1059215   1059216
    842087   1059213   1059214   1059215   1059216   1059217   1059218   1059219   1059220
    842088   1059217   1059218   1059219   1059220   1059221   1059222   1059223   1059224
    842089   1059221   1059222   1059223   1059224   1059225   1059226   1059227   1059228
    842090   1059225   1059226   1059227   1059228   1059229   1059230   1059231   1059232
    842091   1059229   1059230   1059231   1059232   1059233   1059234   1059235   1059236
    842092   1059233   1059234   1059235   1059236   1059237   1059238   1059239   1059240
    842093   1059237   1059238   1059239   1059240   1059241   1059242   1059243   1059244
    842094   1059241   1059242   1059243   1059244   1059245   1059246   1059247   1059248
    842095   1059245   1059246   1059247   1059248   1059249   1059250   1059251   1059252
    842096   1059249   1059250   1059251   1059252   1059253   1059254   1059255   1059256
    842097   1059253   1059254   1059255   1059256   1059257   1059258   1059259   1059260
    842098   1059257   1059258   1059259   1059260   1059261   1059262   1059263   1059264
# ... 89650 like lines cut
#---1----|----2----|----3----|----4----|----5----|----6----|----7----|----8----|----9----|---10----|
##HWCOLOR components 85 21
/PART/85
#part_title                                                                                         
Vessel                                                                                              
#  prop_ID    mat_ID                         Thick
        23         7                              
#---1----|----2----|----3----|----4----|----5----|----6----|----7----|----8----|----9----|---10----|
##HWCOLOR components 86 22
/PART/86
#part_title                                                                                         
Water-Air                                                                                           
#  prop_ID    mat_ID                         Thick
         8         1                              
#---1----|----2----|----3----|----4----|----5----|----6----|----7----|----8----|----9----|---10----|
##HWCOLOR materials 1 5
/MAT/LAW51/1
LAW51                                                                                               

#    Iform
        12
#                                     NU              Nu_Vol
                                                            
#    MatID           ALPHA_MAT
   4000492                 1.0
#    MatID           ALPHA_MAT
   4000493                 0.0
#---1----|----2----|----3----|----4----|----5----|----6----|----7----|----8----|----9----|---10----|
##HWCOLOR materials 7 3
/MAT/PLAS_PREDEF/7
Plastic                                                                                             
#       Material Name
PA6GF30             
#---1----|----2----|----3----|----4----|----5----|----6----|----7----|----8----|----9----|---10----|
##HWCOLOR materials 4000492 6
/MAT/HYD_VISC/4000492
AIR                                                                                                 
#              RHO_I
1.22000000000000E-12
#                 Nu                Pmin
                                        
/EOS/IDEAL-GAS/4000492
AIR                                                                                                 
#              Gamma                  P0                 PSH                  T0               RHO_0
                 1.4                 0.1                                                            
#---1----|----2----|----3----|----4----|----5----|----6----|----7----|----8----|----9----|---10----|
##HWCOLOR materials 4000493 7
/MAT/HYD_VISC/4000493
WATER                                                                                               
#              RHO_I
1.00000000000000E-09
#                 Nu                Pmin
                                        
/EOS/LINEAR/4000493
WATER                                                                                               
#                 P0                   B                 PSH               RHO_0
              0.1013              2089.0                                        
#---1----|----2----|----3----|----4----|----5----|----6----|----7----|----8----|----9----|---10----|
##HWCOLOR properties 8 3
/PROP/SOLID/8
ALE                                                                                                 
#   Isolid    Ismstr               Icpre  Itetra10     Inpts   Itetra4    Iframe                  Dn
         0         0         2         0                   0         0         0                 0.0
#                 qa                  qb                   h              Lambda                  Mu
                 0.0                 0.0                 0.0                 0.0                 0.0
#         deltaT_min
                 0.0
#---1----|----2----|----3----|----4----|----5----|----6----|----7----|----8----|----9----|---10----|
##HWCOLOR properties 23 4
/PROP/SHELL/23
Vessel_Shell                                                                                        
#   Ishell    Ismstr     Ish3n    Idrill    Ipinch                  P_Thick_Fail
        24         0         0         0                                        
#                 Hm                  Hf                  Hr                  Dm                  Dn
                 0.0                 0.0                 0.0                 0.0                 0.0
#        N                         Thick              Ashear              Ithick     Iplas
         5                           1.5                 0.0                   0         0
#---1----|----2----|----3----|----4----|----5----|----6----|----7----|----8----|----9----|---10----|
##HMGROUP  10003508 8
/INTER/TYPE18/10003508
#Title                                                                                              
Fluid-Vessel                                                                                        
#            surf_id grbric_id                                   Ipres      Idel                Istf
                1006         1                                       0         0                    
#             Stfval                                     GAP              Tstart               Tstop
               0.131                                    3.75                 0.0                 0.0
## HM Warning: The set associated with the above card is being output in a different location of the deck.
## HM Warning: The set associated with the above card is being output in a different location of the deck.
#---1----|----2----|----3----|----4----|----5----|----6----|----7----|----8----|----9----|---10----|
##HMNAME LOADCOLS          1misc1                                                                   
##HWCOLOR loadcollectors 1 11
/BCS/7
X-BC                                                                                                
#  Tra rot   skew_ID  grnod_ID
   100 000         0      1000
#---1----|----2----|----3----|----4----|----5----|----6----|----7----|----8----|----9----|---10----|
##HMNAME LOADCOLS          1misc1                                                                   
##HWCOLOR loadcollectors 1 11
/BCS/8
Y-BC                                                                                                
#  Tra rot   skew_ID  grnod_ID
   010 000         0      1001
#---1----|----2----|----3----|----4----|----5----|----6----|----7----|----8----|----9----|---10----|
##HMNAME LOADCOLS          1misc1                                                                   
##HWCOLOR loadcollectors 1 11
/BCS/9
Z-BC                                                                                                
#  Tra rot   skew_ID  grnod_ID
   001 000         0      1002
#---1----|----2----|----3----|----4----|----5----|----6----|----7----|----8----|----9----|---10----|
##HMNAME LOADCOLS          1misc1                                                                   
##HWCOLOR loadcollectors 1 11
/INIVEL/TRA/10
1 meter drop                                                                                        
#                 Vx                  Vy                  Vz   Gnod_id   Skew_id
                 0.0                 0.0             -4429.0      1004         0
#---1----|----2----|----3----|----4----|----5----|----6----|----7----|----8----|----9----|---10----|
/INIVOL/86/10003507
#inivol_title                                                                                       
INIVOL                                                                                              
#  surf_ID ALE_PHASE  FILL_OPT     ICUMU          FILL_RATIO
       998         2         1         0                 0.0
      9999         1         0         0                 0.0
#inivol_title                                                                                       
#  surf_ID ALE_PHASE  FILL_OPT     ICUMU          FILL_RATIO
/SKEW/FIX/1
#skew_title                                                                                         
Frame                                                                                               
#                 Ox                  Oy                  Oz
                 0.0                 0.0                 0.0
#                 X1                  Y1                  Z1
5.47352612827405E-05   0.999999998502026                 0.0
#                 X2                  Y2                  Z2
  -0.9999999985020265.47352612827405E-05                 0.0
#---1----|----2----|----3----|----4----|----5----|----6----|----7----|----8----|----9----|---10----|
#---1----|----2----|----3----|----4----|----5----|----6----|----7----|----8----|----9----|---10----|
##HWCOLOR curves 4 4
/FUNCT/4
#title                                                                                              
Gravity_Curve                                                                                       
#                  X                   Y
                 0.0                 1.0
                 1.0                 1.0
#---1----|----2----|----3----|----4----|----5----|----6----|----7----|----8----|----9----|---10----|
/RWALL/PARAL/57
#rwall_title                                                                                        
RigidWall2                                                                                          
#  node_ID     Slide  grnd_ID1  grnd_ID2
         0         0        78         0
#            Dsearch                                     phi
                 0.0                                     0.0
#                 XM                  YM                  ZM
    63.3845055445159    517.706027030671               -82.0
#                XM1                 YM1                 ZM1
   -63.3845055445159    517.706027030671               -82.0
#                XM2                 YM2                 ZM2
    63.3669976095083     197.84028471001               -82.0
#---1----|----2----|----3----|----4----|----5----|----6----|----7----|----8----|----9----|---10----|
/GRNOD/NODE/78
#title                                                                                              
impact-nodes                                                                                        
# item_ID1  item_ID2  item_ID3  item_ID4  item_ID5  item_ID6  item_ID7  item_ID8  item_ID9 item_ID10
   1056296   1056297   1056298   1056299   1056300   1056301   1056302   1056303   1056304   1056305
   1056306   1056307   1056308   1056309   1056310   1056311   1056312   1056313   1056314   1056315
   1056316   1056317   1056318   1056319   1056320   1056321   1056322   1056323   1056324   1056329
   1056330   1056331   1056332   1056333   1056338   1056339   1056340   1056345   1056365   1056366
   1056367   1056368   1056369   1056371   1056382   1056383   1056384   1056385   1056386   1056387
   1056388   1056389   1056390   1056391   1056392   1056393   1056394   1056396   1056397   1056398
   1056399   1056400   1056401   1056402   1056403   1056404   1056405   1056406   1056407   1056408
   1056416   1056428   1056429   1056430   1056431   1056436   1056437   1056438   1056439   1056440
   1056441   1056442   1056443   1056444   1056445   1056446   1056447   1056448   1056449   1056450
   1056451   1056452   1056453   1056454   1056455   1056456   1056457   1056458   1056459   1056460
   1056461   1056462   1056463   1056478   1056479   1056480   1056486   1056487   1056488   1056489
   1056490   1056491   1056492   1056493   1056494   1056495   1056496   1056517   1056519   1056520
   1056521   1056522   1056759   1056760   1056761   1056762   1056763   1056764   1056765   1056766
   1056767   1056772   1056781   1056783   1056785   1056796   1056798   1056800   1056809   1056810
   1056811   1056812   1056813   1056814   1056815   1056816   1056817   1056818   1056819   1056820
   1056821   1056822   1056823   1056824   1056825   1056833   1056834   1056835   1056836   1056837
   1056838   1056839   1056840   1056841   1056842   1056843   1056844   1056845   1056846   1056847
   1056848   1056849   1056850   1056851   1056852   1056853   1056854   1056855   1056856   1056857
   1056858   1056859   1056860   1056861   1056862   1056863   1056864   1056865   1056866   1056867
   1056869   1056870   1056871   1056872   1056873   1056874   1056875   1056876   1056878   1056880
# ... 49 like lines cut
#---1----|----2----|----3----|----4----|----5----|----6----|----7----|----8----|----9----|---10----|
/GRNOD/NODE/1000
#title                                                                                              
grnodnode                                                                                           
# item_ID1  item_ID2  item_ID3  item_ID4  item_ID5  item_ID6  item_ID7  item_ID8  item_ID9 item_ID10
   1057477   1057501   1057712   1057730   1057737   1057739   1057741   1057753   1057755   1057757
   1057758   1057849   1057851   1058120   1058138   1058145   1058147   1058149   1058161   1058163
   1058165   1058166   1058234   1058241   1058243   1058245   1058257   1058259   1058261   1058262
   1058341   1058552   1058570   1058577   1058579   1058581   1058593   1058595   1058597   1058598
   1058666   1058673   1058675   1058677   1058689   1058691   1058693   1058694   1058972   1058990
   1058997   1058999   1059001   1059087   1059095   1059097   1059099   1059100   1059115   1059117
   1059119   1059120   1061636   1061637   1061640   1061641   1061644   1061645   1061648   1061649
   1061652   1061653   1061656   1061657   1061660   1061661   1061664   1061665   1061668   1061669
   1061672   1061673   1061676   1061677   1061680   1061681   1061684   1061685   1061688   1061689
   1061692   1061693   1061696   1061697   1061700   1061701   1061704   1061705   1061708   1061709
   1061712   1061713   1061716   1061717   1061720   1061721   1061724   1061725   1061728   1061729
   1061732   1061733   1061736   1061737   1061740   1061741   1061744   1061745   1061748   1061749
   1061752   1061753   1061756   1061757   1061760   1061761   1061764   1061765   1061768   1061769
   1061772   1061773   1063946   1063947   1063950   1063951   1063954   1063955   1063958   1063959
   1063962   1063963   1063966   1063967   1063970   1063971   1063974   1063975   1063978   1063979
   1063982   1063983   1063986   1063987   1063990   1063991   1063994   1063995   1063998   1063999
   1064002   1064003   1064006   1064007   1064010   1064011   1064014   1064015   1064018   1064019
   1064022   1064023   1064026   1064027   1064030   1064031   1064034   1064035   1064038   1064039
   1064042   1064043   1064046   1064047   1064050   1064051   1064054   1064055   1064058   1064059
   1064062   1064063   1064066   1064067   1064070   1064071   1064074   1064075   1064078   1064079
# ... 427 like lines cut
#---1----|----2----|----3----|----4----|----5----|----6----|----7----|----8----|----9----|---10----|
/GRNOD/NODE/1001
#title                                                                                              
grnodnode.1                                                                                         
# item_ID1  item_ID2  item_ID3  item_ID4  item_ID5  item_ID6  item_ID7  item_ID8  item_ID9 item_ID10
   1057293   1057354   1057515   1057627   1057650   1057653   1057654   1057661   1057662   1057690
   1057693   1057694   1057701   1057702   1057823   1057849   1057850   1057890   1057893   1057894
   1057901   1057902   1057903   1058757   1058785   1058790   1058791   1058792   1058793   1058794
   1058830   1058831   1058832   1058833   1058834   1058984   1058989   1058990   1059029   1059030
   1059031   1059032   1059033   1059034   1063280   1063281   1063284   1063285   1063288   1063289
   1063292   1063293   1063296   1063297   1063300   1063301   1063304   1063305   1063308   1063309
   1063312   1063313   1063316   1063317   1063320   1063321   1063324   1063325   1063328   1063329
   1063332   1063333   1063336   1063337   1063340   1063341   1063344   1063345   1063348   1063349
   1063352   1063353   1063356   1063357   1063360   1063361   1063364   1063365   1063368   1063369
   1063372   1063373   1063376   1063377   1063380   1063381   1063384   1063385   1063388   1063389
   1063392   1063393   1063396   1063397   1063400   1063401   1063404   1063405   1063408   1063409
   1063412   1063413   1063416   1063417   1069160   1069161   1069163   1069164   1069166   1069167
   1069169   1069170   1069172   1069173   1069175   1069176   1069178   1069179   1069181   1069182
   1069184   1069185   1069187   1069188   1069190   1069191   1069193   1069194   1069196   1069197
   1069199   1069200   1069202   1069203   1069205   1069206   1069208   1069209   1069211   1069212
   1069214   1069215   1069217   1069218   1069220   1069221   1069223   1069224   1069226   1069227
   1069229   1069230   1069232   1069233   1069235   1069236   1069238   1069239   1069241   1069242
   1069244   1069245   1069247   1069248   1069250   1069251   1069253   1069254   1069256   1069257
   1069259   1069260   1069262   1069263   1070735   1070736   1070739   1070740   1070743   1070744
   1070747   1070748   1070751   1070752   1070755   1070756   1070759   1070760   1070763   1070764
# ... 290 like lines cut
#---1----|----2----|----3----|----4----|----5----|----6----|----7----|----8----|----9----|---10----|
/GRNOD/NODE/1002
#title                                                                                              
grnodnode.2                                                                                         
# item_ID1  item_ID2  item_ID3  item_ID4  item_ID5  item_ID6  item_ID7  item_ID8  item_ID9 item_ID10
   1057293   1057294   1057295   1057296   1057297   1057298   1057299   1057300   1057301   1057302
   1057303   1057304   1057305   1057306   1057307   1057308   1057309   1057310   1057311   1057312
   1057313   1057314   1057315   1057316   1057317   1057318   1057319   1057320   1057321   1057322
   1057323   1057324   1057325   1057326   1057327   1057328   1057329   1057330   1057331   1057332
   1057333   1057334   1057335   1057336   1057337   1057338   1057339   1057340   1057341   1057342
   1057343   1057344   1057345   1057346   1057347   1057348   1057349   1057350   1057351   1057352
   1057353   1057354   1057457   1057458   1057459   1057460   1057461   1057462   1057463   1057464
   1057465   1057466   1057467   1057468   1057469   1057470   1057471   1057472   1057473   1057474
   1057475   1057476   1057477   1057481   1057482   1057483   1057484   1057485   1057486   1057487
   1057488   1057489   1057490   1057491   1057492   1057493   1057494   1057495   1057496   1057497
   1057498   1057499   1057500   1057501   1057505   1057506   1057507   1057508   1057509   1057510
   1057511   1057512   1057513   1057514   1057515   1057522   1057523   1057524   1057525   1057526
   1057527   1057528   1057529   1057530   1057531   1057532   1057533   1057534   1057535   1057536
   1057537   1057538   1057539   1057540   1057541   1057542   1057543   1057544   1057545   1057546
   1057547   1057548   1057549   1057550   1057551   1057552   1057553   1057554   1057555   1057556
   1057557   1057558   1057559   1057560   1057561   1057562   1057563   1057564   1057565   1057566
   1057567   1057568   1057569   1057570   1057571   1057572   1057573   1057574   1057575   1057576
   1057577   1057578   1057579   1057580   1057581   1057582   1057583   1057584   1057585   1057586
   1057587   1057588   1057589   1057590   1057591   1057592   1057593   1057594   1057595   1057596
   1057597   1057598   1057599   1057600   1057601   1057602   1057603   1057604   1057605   1057606
# ... 514 like lines cut
#---1----|----2----|----3----|----4----|----5----|----6----|----7----|----8----|----9----|---10----|
/GRNOD/NODE/1004
#title                                                                                              
grnodnode.3                                                                                         
# item_ID1  item_ID2  item_ID3  item_ID4  item_ID5  item_ID6  item_ID7  item_ID8  item_ID9 item_ID10
   1056291   1056292   1056293   1056294   1056295   1056296   1056297   1056298   1056299   1056300
   1056301   1056302   1056303   1056304   1056305   1056306   1056307   1056308   1056309   1056310
   1056311   1056312   1056313   1056314   1056315   1056316   1056317   1056318   1056319   1056320
   1056321   1056322   1056323   1056324   1056325   1056326   1056327   1056328   1056329   1056330
   1056331   1056332   1056333   1056334   1056335   1056336   1056337   1056338   1056339   1056340
   1056341   1056342   1056343   1056344   1056345   1056346   1056347   1056348   1056349   1056350
   1056351   1056352   1056353   1056354   1056355   1056356   1056357   1056358   1056359   1056360
   1056361   1056362   1056363   1056364   1056365   1056366   1056367   1056368   1056369   1056370
   1056371   1056372   1056373   1056374   1056375   1056376   1056377   1056378   1056379   1056380
   1056381   1056382   1056383   1056384   1056385   1056386   1056387   1056388   1056389   1056390
   1056391   1056392   1056393   1056394   1056396   1056397   1056398   1056399   1056400   1056401
   1056402   1056403   1056404   1056405   1056406   1056407   1056408   1056409   1056410   1056411
   1056412   1056413   1056414   1056415   1056416   1056417   1056418   1056419   1056420   1056421
   1056422   1056423   1056424   1056425   1056426   1056427   1056428   1056429   1056430   1056431
   1056432   1056433   1056434   1056435   1056436   1056437   1056438   1056439   1056440   1056441
   1056442   1056443   1056444   1056445   1056446   1056447   1056448   1056449   1056450   1056451
   1056452   1056453   1056454   1056455   1056456   1056457   1056458   1056459   1056460   1056461
   1056462   1056463   1056464   1056465   1056466   1056467   1056468   1056469   1056470   1056471
   1056472   1056473   1056474   1056475   1056476   1056477   1056478   1056479   1056480   1056481
   1056482   1056483   1056484   1056485   1056486   1056487   1056488   1056489   1056490   1056491
# ... 9684 like lines cut
#---1----|----2----|----3----|----4----|----5----|----6----|----7----|----8----|----9----|---10----|
/GRNOD/PART/1005
#title                                                                                              
GrnodPartForInterfaceId_10003508                                                                    
# item_ID1  item_ID2  item_ID3  item_ID4  item_ID5  item_ID6  item_ID7  item_ID8  item_ID9 item_ID10
        86
#---1----|----2----|----3----|----4----|----5----|----6----|----7----|----8----|----9----|---10----|
/GRBRIC/PART/1
#title                                                                                              
GRBRIC_ALE                                                                                          
# item_ID1  item_ID2  item_ID3  item_ID4  item_ID5  item_ID6  item_ID7  item_ID8  item_ID9 item_ID10
        86
#---1----|----2----|----3----|----4----|----5----|----6----|----7----|----8----|----9----|---10----|
/SURF/PART/1006
#title                                                                                              
SurfPartForInterfaceId_10003508                                                                     
# item_ID1  item_ID2  item_ID3  item_ID4  item_ID5  item_ID6  item_ID7  item_ID8  item_ID9 item_ID10
        85
#---1----|----2----|----3----|----4----|----5----|----6----|----7----|----8----|----9----|---10----|
#  Surf_ID ALE_PHASE  FILL_OPT     ICUMU          FILL_RATIO
/SURF/PART/998
#title                                                                                              
Vessel_Surf_Part                                                                                    
# item_ID1  item_ID2  item_ID3  item_ID4  item_ID5  item_ID6  item_ID7  item_ID8  item_ID9 item_ID10
        85
#---1----|----2----|----3----|----4----|----5----|----6----|----7----|----8----|----9----|---10----|
/SURF/PLANE/9999
#title                                                                                              
Surface of Vessel Fluid                                                                             
#                 XM                  YM                  ZM
                 0.0                 0.0               -50.0
#                XM1                 YM1                 ZM1
                 0.0                 0.0                 0.0
##--------------------------------------------------------------------------------------------------
## End Of Radioss Block Deck
##--------------------------------------------------------------------------------------------------
/END
##<?xml version="1.0" encoding="utf-8"?>
##<Altair_XML_Export>
##    <UDM xmlns:SOAP-ENV="http://schemas.xmlsoap.org/soap/envelope/" xmlns:SOAP-ENC="http://schemas.xmlsoap.org/soap/encoding/" xmlns:xsi="http://www.w3.org/2001/XMLSchema-instance" xmlns:xsd="http://www.w3.org/2001/XMLSchema" xmlns:udmcfg="http://schemas.altair.com/AltairUDMRuntimeConfig" xmlns:udmxml="http://schemas.altair.com/AltairUDM" xmlns:importrules="http://schemas.altair.com/hsm/importru
##        <udmxml:EntityCollection xsi:type="udmxml:EntityCollectionCType">
##            <udmxml:Entity xsi:type="udmxml:AssemblyDMCType" displayName="HW_Assembly" contentDefinitionType="UDMAssemblyDM" id="100db26923765a4dae5dfd581697ec1f:0">
##                <udmxml:Children>
##                    <udmxml:Child xsi:type="udmxml:ChildCType" refId="4ed57f991f5e0e40961146e25b03342b:0" timestamp="1679924063664997" childFlags="0" groupName="boas" contentDefinitionType="UDMBOA"/>
##                </udmxml:Children>
##            </udmxml:Entity>
##            <udmxml:Entity xsi:type="udmxml:BOACType" displayName="hm0" contentDefinitionType="UDMBOA" id="4ed57f991f5e0e40961146e25b03342b:0">
##                <udmxml:Children>
##                    <udmxml:Child xsi:type="udmxml:ChildCType" refId="69294f6c4ca40843b57d5f196bcd8de0:0" timestamp="1679924063664997" childFlags="0" groupName="parts" contentDefinitionType="UDMPartProtoOcc">
##                        <AdditionalIdList xsi:type="udmxml:AdditionalIdCType" xmlns="http://schemas.altair.com/AltairUDM" keyValue="Model" keyName="displayname" contentDefinitionType="UDMPartProtoOcc"/>
##                    </udmxml:Child>
##                </udmxml:Children>
##            </udmxml:Entity>
##            <udmxml:Entity xsi:type="udmxml:PartCType" displayName="Vessel.p" contentDefinitionType="UDMPartProto" id="fe1b45c790071849951d607e9a82687c:0">
##                <udmxml:Attributes>
##                    <udmxml:Attribute xsi:type="udmxml:AttributeCType" valueutf8="-" type="string" name="studyrevision" displayName="STUDY_REVISION">-</udmxml:Attribute>
##                    <udmxml:Attribute xsi:type="udmxml:AttributeCType" valueutf8="Vessel" type="string" name="HW_UID">Vessel</udmxml:Attribute>
##                    <udmxml:Attribute xsi:type="udmxml:AttributeCType" valueutf8="-" type="string" name="PLMXML_PRODUCTREVISION_REVISION">-</udmxml:Attribute>
##                </udmxml:Attributes>
##            </udmxml:Entity>
##            <udmxml:Entity xsi:type="udmxml:PartCType" displayName="fsi_drop_container_0000.rad.p" contentDefinitionType="UDMPartProto" id="f22c1330192f4d428e0160530a6c37bd:0">
##                <udmxml:Attributes>
##                    <udmxml:Attribute xsi:type="udmxml:AttributeCType" valueutf8="-" type="string" name="studyrevision" displayName="STUDY_REVISION">-</udmxml:Attribute>
##                    <udmxml:Attribute xsi:type="udmxml:AttributeCType" valueutf8="fsi_drop_container_0000.rad" type="string" name="HW_UID">fsi_drop_container_0000.rad</udmxml:Attribute>
##                    <udmxml:Attribute xsi:type="udmxml:AttributeCType" valueutf8="-" type="string" name="PLMXML_PRODUCTREVISION_REVISION">-</udmxml:Attribute>
##                </udmxml:Attributes>
##                <udmxml:Children>
##                    <udmxml:Child xsi:type="udmxml:ChildCType" refId="a5967bf4c7cb314aaa6d0f01694e3b8f:0" timestamp="1679924071095688" childFlags="0" groupName="partprotoinst" contentDefinitionType="UDMPartProtoInst"/>
##                    <udmxml:Child xsi:type="udmxml:ChildCType" refId="15930d4f4ab0314f96fcbeee60a381e2:0" timestamp="1679924071095688" childFlags="0" groupName="partprotoinst" contentDefinitionType="UDMPartProtoInst"/>
##                </udmxml:Children>
##            </udmxml:Entity>
##            <udmxml:Entity xsi:type="udmxml:PartCType" displayName="Module Model.p" contentDefinitionType="UDMPartProto" id="b3a19e824c44274884e5bbc2beccf28f:0">
##                <udmxml:Children>
##                    <udmxml:Child xsi:type="udmxml:ChildCType" refId="9cfde735db70b54380d9cc8ad0b075fc:0" timestamp="1679924071095688" childFlags="0" groupName="partprotoinst" contentDefinitionType="UDMPartProtoInst"/>
##                </udmxml:Children>
##            </udmxml:Entity>
##            <udmxml:Entity xsi:type="udmxml:PartCType" displayName="Water-Air.p" contentDefinitionType="UDMPartProto" id="cdaa239906a95646a1789c714b2a4974:0">
##                <udmxml:Attributes>
##                    <udmxml:Attribute xsi:type="udmxml:AttributeCType" valueutf8="-" type="string" name="studyrevision" displayName="STUDY_REVISION">-</udmxml:Attribute>
##                    <udmxml:Attribute xsi:type="udmxml:AttributeCType" valueutf8="Water-Air" type="string" name="HW_UID">Water-Air</udmxml:Attribute>
##                    <udmxml:Attribute xsi:type="udmxml:AttributeCType" valueutf8="-" type="string" name="PLMXML_PRODUCTREVISION_REVISION">-</udmxml:Attribute>
##                </udmxml:Attributes>
##            </udmxml:Entity>
##            <udmxml:Entity xsi:type="udmxml:PartCType" displayName="Vessel" contentDefinitionType="UDMPartProtoInst" id="a5967bf4c7cb314aaa6d0f01694e3b8f:0">
##                <udmxml:Children>
##                    <udmxml:Child xsi:type="udmxml:ChildCType" refId="fe1b45c790071849951d607e9a82687c:0" timestamp="1679924071095688" childFlags="0" groupName="partprotos" contentDefinitionType="UDMPartProto"/>
##                </udmxml:Children>
##            </udmxml:Entity>
##            <udmxml:Entity xsi:type="udmxml:PartCType" displayName="fsi_drop_container_0000.rad" contentDefinitionType="UDMPartProtoInst" id="9cfde735db70b54380d9cc8ad0b075fc:0">
##                <udmxml:Children>
##                    <udmxml:Child xsi:type="udmxml:ChildCType" refId="f22c1330192f4d428e0160530a6c37bd:0" timestamp="1679924071095688" childFlags="0" groupName="partprotos" contentDefinitionType="UDMPartProto"/>
##                </udmxml:Children>
##            </udmxml:Entity>
##            <udmxml:Entity xsi:type="udmxml:PartCType" displayName="Water-Air" contentDefinitionType="UDMPartProtoInst" id="15930d4f4ab0314f96fcbeee60a381e2:0">
##                <udmxml:Children>
##                    <udmxml:Child xsi:type="udmxml:ChildCType" refId="cdaa239906a95646a1789c714b2a4974:0" timestamp="1679924071095688" childFlags="0" groupName="partprotos" contentDefinitionType="UDMPartProto"/>
##                </udmxml:Children>
##            </udmxml:Entity>
##            <udmxml:Entity xsi:type="udmxml:PartCType" protoInstanceRefId="a5967bf4c7cb314aaa6d0f01694e3b8f:0" prototypeRefId="fe1b45c790071849951d607e9a82687c:0" displayName="Vessel" contentDefinitionType="UDMPartProtoOcc" id="561a420f281a2b42baaaff0d2f423ed8:0">
##                <udmxml:Attributes>
##                    <udmxml:Attribute xsi:type="udmxml:AttributeCType" valueutf8="fe1b45c790071849951d607e9a82687c" type="string" name="protoref" displayName="Prototype reference">fe1b45c790071849951d607e9a82687c</udmxml:Attribute>
##                    <udmxml:Attribute xsi:type="udmxml:AttributeCType" valueutf8="a5967bf4c7cb314aaa6d0f01694e3b8f" type="string" name="protoinstanceref" displayName="Prototype Instance reference">a5967bf4c7cb314aaa6d0f01694e3b8f</udmxml:Attribute>
##                    <udmxml:Attribute xsi:type="udmxml:AttributeCType" valueutf8="Components(85)" type="string" name="EntitySelectionExp">Components(85)</udmxml:Attribute>
##                    <udmxml:Attribute xsi:type="udmxml:AttributeCType" valueutf8="85" type="string" name="SelectionExp">85</udmxml:Attribute>
##                    <udmxml:Attribute xsi:type="udmxml:AttributeCType" valueutf8="7" type="string" name="UdmxmlString_HmOccurrenceColor">7</udmxml:Attribute>
##                    <udmxml:Attribute xsi:type="udmxml:AttributeCType" valueutf8="6" type="string" name="UdmxmlString_HmOccurrenceId">6</udmxml:Attribute>
##                    <udmxml:Attribute xsi:type="udmxml:AttributeCType" valueutf8="16776960" type="string" name="UdmxmlString_HmOccurrenceTrueColor">16776960</udmxml:Attribute>
##                </udmxml:Attributes>
##            </udmxml:Entity>
##            <udmxml:Entity xsi:type="udmxml:PartCType" protoInstanceRefId="9cfde735db70b54380d9cc8ad0b075fc:0" prototypeRefId="f22c1330192f4d428e0160530a6c37bd:0" displayName="fsi_drop_container_0000.rad" contentDefinitionType="UDMPartProtoOcc" id="523bc17ec746d64dab53f5b34f9ff251:0">
##                <udmxml:Attributes>
##                    <udmxml:Attribute xsi:type="udmxml:AttributeCType" valueutf8="f22c1330192f4d428e0160530a6c37bd" type="string" name="protoref" displayName="Prototype reference">f22c1330192f4d428e0160530a6c37bd</udmxml:Attribute>
##                    <udmxml:Attribute xsi:type="udmxml:AttributeCType" valueutf8="9cfde735db70b54380d9cc8ad0b075fc" type="string" name="protoinstanceref" displayName="Prototype Instance reference">9cfde735db70b54380d9cc8ad0b075fc</udmxml:Attribute>
##                    <udmxml:Attribute xsi:type="udmxml:AttributeCType" valueutf8="6" type="string" name="UdmxmlString_HmOccurrenceColor">6</udmxml:Attribute>
##                    <udmxml:Attribute xsi:type="udmxml:AttributeCType" valueutf8="4" type="string" name="UdmxmlString_HmOccurrenceId">4</udmxml:Attribute>
##                    <udmxml:Attribute xsi:type="udmxml:AttributeCType" valueutf8="65535" type="string" name="UdmxmlString_HmOccurrenceTrueColor">65535</udmxml:Attribute>
##                </udmxml:Attributes>
##                <udmxml:Children>
##                    <udmxml:Child xsi:type="udmxml:ChildCType" refId="561a420f281a2b42baaaff0d2f423ed8:0" timestamp="1679924071095688" childFlags="0" groupName="partprotooccs" contentDefinitionType="UDMPartProtoOcc">
##                        <AdditionalIdList xsi:type="udmxml:AdditionalIdCType" xmlns="http://schemas.altair.com/AltairUDM" keyValue="Vessel" keyName="displayname" contentDefinitionType="UDMPartProtoOcc"/>
##                    </udmxml:Child>
##                    <udmxml:Child xsi:type="udmxml:ChildCType" refId="ffdf5a4d49413c4c9a0ac657483ab037:0" timestamp="1679924071096685" childFlags="0" groupName="partprotooccs" contentDefinitionType="UDMPartProtoOcc">
##                        <AdditionalIdList xsi:type="udmxml:AdditionalIdCType" xmlns="http://schemas.altair.com/AltairUDM" keyValue="Water-Air" keyName="displayname" contentDefinitionType="UDMPartProtoOcc"/>
##                    </udmxml:Child>
##                </udmxml:Children>
##            </udmxml:Entity>
##            <udmxml:Entity xsi:type="udmxml:PartCType" prototypeRefId="b3a19e824c44274884e5bbc2beccf28f:0" displayName="Model" contentDefinitionType="UDMPartProtoOcc" id="69294f6c4ca40843b57d5f196bcd8de0:0">
##                <udmxml:Attributes>
##                    <udmxml:Attribute xsi:type="udmxml:AttributeCType" valueutf8="b3a19e824c44274884e5bbc2beccf28f" type="string" name="protoref" displayName="Prototype reference">b3a19e824c44274884e5bbc2beccf28f</udmxml:Attribute>
##                    <udmxml:Attribute xsi:type="udmxml:AttributeCType" valueutf8="5" type="string" name="UdmxmlString_HmOccurrenceColor">5</udmxml:Attribute>
##                    <udmxml:Attribute xsi:type="udmxml:AttributeCType" valueutf8="2" type="string" name="UdmxmlString_HmOccurrenceId">2</udmxml:Attribute>
##                    <udmxml:Attribute xsi:type="udmxml:AttributeCType" valueutf8="16711680" type="string" name="UdmxmlString_HmOccurrenceTrueColor">16711680</udmxml:Attribute>
##                    <udmxml:Attribute xsi:type="udmxml:AttributeCType" valueutf8="true" type="boolean" name="pseudo root">true</udmxml:Attribute>
##                </udmxml:Attributes>
##                <udmxml:Children>
##                    <udmxml:Child xsi:type="udmxml:ChildCType" refId="523bc17ec746d64dab53f5b34f9ff251:0" timestamp="1679924071095688" childFlags="0" groupName="partprotooccs" contentDefinitionType="UDMPartProtoOcc">
##                        <AdditionalIdList xsi:type="udmxml:AdditionalIdCType" xmlns="http://schemas.altair.com/AltairUDM" keyValue="fsi_drop_container_0000.rad" keyName="displayname" contentDefinitionType="UDMPartProtoOcc"/>
##                    </udmxml:Child>
##                </udmxml:Children>
##            </udmxml:Entity>
##            <udmxml:Entity xsi:type="udmxml:PartCType" protoInstanceRefId="15930d4f4ab0314f96fcbeee60a381e2:0" prototypeRefId="cdaa239906a95646a1789c714b2a4974:0" displayName="Water-Air" contentDefinitionType="UDMPartProtoOcc" id="ffdf5a4d49413c4c9a0ac657483ab037:0">
##                <udmxml:Attributes>
##                    <udmxml:Attribute xsi:type="udmxml:AttributeCType" valueutf8="cdaa239906a95646a1789c714b2a4974" type="string" name="protoref" displayName="Prototype reference">cdaa239906a95646a1789c714b2a4974</udmxml:Attribute>
##                    <udmxml:Attribute xsi:type="udmxml:AttributeCType" valueutf8="15930d4f4ab0314f96fcbeee60a381e2" type="string" name="protoinstanceref" displayName="Prototype Instance reference">15930d4f4ab0314f96fcbeee60a381e2</udmxml:Attribute>
##                    <udmxml:Attribute xsi:type="udmxml:AttributeCType" valueutf8="Components(86)" type="string" name="EntitySelectionExp">Components(86)</udmxml:Attribute>
##                    <udmxml:Attribute xsi:type="udmxml:AttributeCType" valueutf8="86" type="string" name="SelectionExp">86</udmxml:Attribute>
##                    <udmxml:Attribute xsi:type="udmxml:AttributeCType" valueutf8="8" type="string" name="UdmxmlString_HmOccurrenceColor">8</udmxml:Attribute>
##                    <udmxml:Attribute xsi:type="udmxml:AttributeCType" valueutf8="8" type="string" name="UdmxmlString_HmOccurrenceId">8</udmxml:Attribute>
##                    <udmxml:Attribute xsi:type="udmxml:AttributeCType" valueutf8="16711935" type="string" name="UdmxmlString_HmOccurrenceTrueColor">16711935</udmxml:Attribute>
##                </udmxml:Attributes>
##            </udmxml:Entity>
##        </udmxml:EntityCollection>
##        <udmxml:RelationCollection xsi:type="udmxml:RelationCollectionCType"/>
##        <udmxml:RootEntities xsi:type="udmxml:RootEntityCollectionCType">
##            <udmxml:ItemId>100db26923765a4dae5dfd581697ec1f:0</udmxml:ItemId>
##        </udmxml:RootEntities>
##    </UDM>
##</Altair_XML_Export>
