#RADIOSS STARTER
#--------------------------------------------------------------------------------------------------|
#- RADIOSS DECK WRITTEN BY HyperCrash
#HyperCrash 14.0 (64 bits) 
#Mon Dec 21 15:04:12 2015
#-
#--------------------------------------------------------------------------------------------------|
#- RADIOSS DECK WRITTEN BY HyperCrash
#HyperCrash 10.0 SA2 (64 bits)
#Wed Jul 21 18:10:12 2010
#-
#
#
#-
#- DATE	Wed Jul 21 18:10:12 2010
#--------------------------------------------------------------------------------------------------|
#---1----|----2----|----3----|----4----|----5----|----6----|----7----|----8----|----9----|---10----|
#-
#- DATE	Mon Dec 21 15:04:12 2015
#--------------------------------------------------------------------------------------------------|
#---1----|----2----|----3----|----4----|----5----|----6----|----7----|----8----|----9----|---10----|
/BEGIN
I16S16FM                                                                        
       140         0
                  kg                  mm                   s
                  kg                  mm                   s
#---1----|----2----|----3----|----4----|----5----|----6----|----7----|----8----|----9----|---10----|
#-  1. CONTROL CARDS:
#---1----|----2----|----3----|----4----|----5----|----6----|----7----|----8----|----9----|---10----|
/TITLE
UNKNOW
#---1----|----2----|----3----|----4----|----5----|----6----|----7----|----8----|----9----|---10----|
/ANALY
#    N2D3D             IPARITH      ISUB
         0                   0         0
#---1----|----2----|----3----|----4----|----5----|----6----|----7----|----8----|----9----|---10----|
/DEF_SHELL
#   ISHELL    ISMSTR    ITHICK     IPLAS   ISTRAIN                        I_SH3N     IDRIL
         0         0         0         0         0                             0         0
#---1----|----2----|----3----|----4----|----5----|----6----|----7----|----8----|----9----|---10----|
/DEF_SOLID
#  I_SOLID    ISMSTR             ISTRAIN                                  IFRAME
         0         0                   0                                       0
#---1----|----2----|----3----|----4----|----5----|----6----|----7----|----8----|----9----|---10----|
/IOFLAG
#     IPRI               IGTYP     IOUTP    IOUTYY   IROOTYY     IDROT
         0                   0         0         0         0         0
#---1----|----2----|----3----|----4----|----5----|----6----|----7----|----8----|----9----|---10----|
/SPMD
#   DOMDEC     Nproc              Dkword             Nthread
         0         0                   0                   1
#---1----|----2----|----3----|----4----|----5----|----6----|----7----|----8----|----9----|---10----|
#-  2. MATERIALS:
#---1----|----2----|----3----|----4----|----5----|----6----|----7----|----8----|----9----|---10----|
/MAT/PLAS_JOHNS/1
STEEL
#              RHO_I
              7.8E-6              7.8E-6
#                  E                  Nu
           210000000                  .3
#                  a                   b                   n           EPS_p_max            SIG_max0
              200000              400000                  .5                   0                   0
#                  c           EPS_DOT_0       ICC   Fsmooth               F_cut               Chard
                   0                   0         0         0                   0                   0
#                  m              T_melt              rhoC_p                 T_r
                   0                   0                   0                   0
#---1----|----2----|----3----|----4----|----5----|----6----|----7----|----8----|----9----|---10----|
#-  3. NODES:
#---1----|----2----|----3----|----4----|----5----|----6----|----7----|----8----|----9----|---10----|
/NODE
         1            -21.9978            9.004554               -16.6
         2                   0           31.002354               -16.6
         3                   0            9.004554               -16.6
         4         -8.40495014          29.2958985               -16.6
         5         -15.5547935          24.5593476               -16.6
         6         -20.2913445          17.4095042               -16.6
         7           -16.49835            9.004554               -16.6
         8            -10.9989            9.004554               -16.6
         9            -5.49945            9.004554               -16.6
        10                   0           14.504004               -16.6
        11                   0           20.003454               -16.6
        12                   0           25.502904               -16.6
        13          -5.5788756          23.2267596               -16.6
        14         -3.71232095          19.6609529               -16.6
        15         -6.08778306          15.1743926               -16.6
        16          -10.565152          12.7591843               -16.6
        17         -14.2019362          14.6044198               -16.6
        18         -10.4890482          19.5243415               -16.6
        19                   0           28.252629               -16.6
        20         -2.78943779          24.3648318               -16.6
# ... 2203 like lines cut
#---1----|----2----|----3----|----4----|----5----|----6----|----7----|----8----|----9----|---10----|
#-  4. BOUNDARY CONDITIONS:
#---1----|----2----|----3----|----4----|----5----|----6----|----7----|----8----|----9----|---10----|
/BCS/2
bcs valve
#  Tra rot   skew_ID  grnod_ID
   110 111         0        15
/GRNOD/NODE/15
valve rigid body master node
      3001
#---1----|----2----|----3----|----4----|----5----|----6----|----7----|----8----|----9----|---10----|
/BCS/3
bcs springs
#  Tra rot   skew_ID  grnod_ID
   111 111         0        22
/GRNOD/NODE/22
low spring extremity node
      3000
#---1----|----2----|----3----|----4----|----5----|----6----|----7----|----8----|----9----|---10----|
/BCS/4
bcs cam
#  Tra rot   skew_ID  grnod_ID
   111 101         0     13073
/GRNOD/NODE/13073
cam rigid body master node
      5776
#---1----|----2----|----3----|----4----|----5----|----6----|----7----|----8----|----9----|---10----|
#-  5. SKEWS & FRAMES:
#---1----|----2----|----3----|----4----|----5----|----6----|----7----|----8----|----9----|---10----|
/FRAME/FIX/1
NULL
#                 OX                  OY                  OZ
                   0                   9                .585
#                 X1                  Y1                  Z1
                   0                   1                   0
#                 X2                  Y2                  Z2
                  -1                   0                   0
#---1----|----2----|----3----|----4----|----5----|----6----|----7----|----8----|----9----|---10----|
#-  6. PARTS:
#---1----|----2----|----3----|----4----|----5----|----6----|----7----|----8----|----9----|---10----|
/PART/1
VALVE
         1         1         1
#---1----|----2----|----3----|----4----|----5----|----6----|----7----|----8----|----9----|---10----|
# SHEL16 elements of /PART/1/VALVE:
#---1----|----2----|----3----|----4----|----5----|----6----|----7----|----8----|----9----|---10----|
/SHEL16/1
        45        93        94        95        96       185       186       187       188
        97        98        99       100
       189       190       191       192
        46        94       101       102        95       186       193       194       187
       103       104       105        98
       195       196       197       190
        47       101       106       107       102       193       198       199       194
       108       109       110       104
       200       201       202       196
        48       106         3         9       107       198       203       204       199
       113        30       115       109
       205       206       207       201
        49         9         8       117       107       204       208       209       199
        32       119       120       115
       210       211       212       207
        50         8         7       122       117       208       213       214       209
        35       124       125       119
       215       216       217       211
        51         7         1       127       122       213       218       219       214
        38       129       130       124
# ... 244 like lines cut
#---1----|----2----|----3----|----4----|----5----|----6----|----7----|----8----|----9----|---10----|
/PART/2
EXTERNAL CAM
         1         1         1
#---1----|----2----|----3----|----4----|----5----|----6----|----7----|----8----|----9----|---10----|
# SHEL16 elements of /PART/2/EXTERNAL CAM:
#---1----|----2----|----3----|----4----|----5----|----6----|----7----|----8----|----9----|---10----|
/SHEL16/2
       140       821       808      1020      1021       807       798      1025      1026
       851      1097      1023      1098
       854      1099      1028      1100
       141       820       821      1021      1016       806       807      1026      1030
       852      1098      1024      1096
       856      1100      1031      1101
       142       822       820      1016      1034       805       806      1030      1033
       860      1096      1037      1103
       858      1101      1035      1102
       143       823       822      1034      1039       804       805      1033      1038
       863      1103      1042      1105
       861      1102      1040      1104
       144       824       823      1039      1044       803       804      1038      1043
       866      1105      1047      1107
       864      1104      1045      1106
       145       825       824      1044      1049       796       803      1043      1048
       869      1107      1052      1109
       867      1106      1050      1108
       146       826       825      1049      1054       802       796      1048      1053
       872      1109      1057      1111
# ... 340 like lines cut
#---1----|----2----|----3----|----4----|----5----|----6----|----7----|----8----|----9----|---10----|
/PART/3
SPRING 1
         2         0         1
#---1----|----2----|----3----|----4----|----5----|----6----|----7----|----8----|----9----|---10----|
# SPRING elements of /PART/3/SPRING 1:
#---1----|----2----|----3----|----4----|----5----|----6----|----7----|----8----|----9----|---10----|
/SPRING/3
         1      3001      3000                                        
#---1----|----2----|----3----|----4----|----5----|----6----|----7----|----8----|----9----|---10----|
/PART/4
SPRING 2
         3         0         1
#---1----|----2----|----3----|----4----|----5----|----6----|----7----|----8----|----9----|---10----|
# SPRING elements of /PART/4/SPRING 2:
#---1----|----2----|----3----|----4----|----5----|----6----|----7----|----8----|----9----|---10----|
/SPRING/4
         2      3001      3000                                        
#---1----|----2----|----3----|----4----|----5----|----6----|----7----|----8----|----9----|---10----|
/PART/5
INTERNAL CAM
         4         1         1
#---1----|----2----|----3----|----4----|----5----|----6----|----7----|----8----|----9----|---10----|
# BRIC20 elements of /PART/5/INTERNAL CAM:
#---1----|----2----|----3----|----4----|----5----|----6----|----7----|----8----|----9----|---10----|
/BRIC20/5
       133      3586      3471      3761      3760      3585      3468      3758      3759
      3604      3857      3764      3856      3603      3507      3765      3763
      3602      3854      3762      3855
       134      3587      3586      3760      3767      3584      3585      3759      3766
      3608      3856      3770      3859      3607      3603      3763      3769
      3606      3855      3768      3858
       135      3588      3587      3767      3772      3583      3584      3766      3771
      3611      3859      3775      3861      3610      3607      3769      3774
      3609      3858      3773      3860
       136      3589      3588      3772      3777      3582      3583      3771      3776
      3614      3861      3780      3863      3613      3610      3774      3779
      3612      3860      3778      3862
       137      3590      3589      3777      3782      3581      3582      3776      3781
      3617      3863      3785      3865      3616      3613      3779      3784
      3615      3862      3783      3864
       138       820      3590      3782      1016      3580      3581      3781      3786
      3620      3865      3790      1096      3619      3616      3784      3789
      3618      3864      3788      3866
       139       821       820      1016      1021       808      3580      3786      1020
       852      1096      1024      1098       851      3619      3789      1023
# ... 730 like lines cut
#---1----|----2----|----3----|----4----|----5----|----6----|----7----|----8----|----9----|---10----|
#-  7. SUBSETS:
#---1----|----2----|----3----|----4----|----5----|----6----|----7----|----8----|----9----|---10----|
/SUBSET/1
CAM
#---1----|----2----|----3----|----4----|----5----|----6----|----7----|----8----|----9----|---10----|
#-  8. GEOMETRICAL SETS:
#---1----|----2----|----3----|----4----|----5----|----6----|----7----|----8----|----9----|---10----|
/PROP/TYPE20/1
general solid
#   Isolid    Ismstr               Icpre     Icstr     Inpts      Iint                            dn
        16         0                   0         0         0         0                             0
#                q_a                 q_b                   h
                   0                   0                   0
#             dt_min
                   0
#---1----|----2----|----3----|----4----|----5----|----6----|----7----|----8----|----9----|---10----|
/PROP/SPRING/2
spring 1
#                  M                               sensor_ID    Isflag     Ileng
                  .1                                       0         0         0
#                  K                   C                   A                   B                   D
               30000                   0                   0                   0                   0
#funct_ID1         H funct_ID2 funct_ID3 funct_ID4                     delta_min           delta_max
         2         0         0         0         0                             0                   0
#            Fscale1                   E             Ascalex             HSCALE4
                   0                   0                   0                   0
#---1----|----2----|----3----|----4----|----5----|----6----|----7----|----8----|----9----|---10----|
/PROP/SPRING/3
spring 2
#                  M                               sensor_ID    Isflag     Ileng
                 .05                                       0         0         0
#                  K                   C                   A                   B                   D
               15000                   0                   0                   0                   0
#funct_ID1         H funct_ID2 funct_ID3 funct_ID4                     delta_min           delta_max
         3         0         0         0         0                             0                   0
#            Fscale1                   E             Ascalex             HSCALE4
                   0                   0                   0                   0
#---1----|----2----|----3----|----4----|----5----|----6----|----7----|----8----|----9----|---10----|
/PROP/SOLID/4
general solid
#   Isolid    Ismstr               Icpre               Inpts    Itetra    Iframe                  dn
        16         0                   0                 222         0         0                   0
#                q_a                 q_b                   h            LAMBDA_V                MU_V
                   0                   0                   0                   0                   0
#             dt_min   istrain      IHKT
                   0         0         0
#---1----|----2----|----3----|----4----|----5----|----6----|----7----|----8----|----9----|---10----|
#-  9. FUNCTIONS:
#---1----|----2----|----3----|----4----|----5----|----6----|----7----|----8----|----9----|---10----|
/FUNCT/1
imposed cam rotation
#                  X                   Y
                   0                   1                                                            
                1000                   1                                                            
#---1----|----2----|----3----|----4----|----5----|----6----|----7----|----8----|----9----|---10----|
/FUNCT/2
stiffness spring 1
#                  X                   Y
                 -40            -1500000                                                            
                   0             -300000                                                            
                  50             1200000                                                            
#---1----|----2----|----3----|----4----|----5----|----6----|----7----|----8----|----9----|---10----|
/FUNCT/3
stiffness spring 2
#                  X                   Y
                 -40             -750000                                                            
                   0             -150000                                                            
                  50              600000                                                            
#---1----|----2----|----3----|----4----|----5----|----6----|----7----|----8----|----9----|---10----|
#- 10. INITIAL VELOCITIES:
#---1----|----2----|----3----|----4----|----5----|----6----|----7----|----8----|----9----|---10----|
/INIVEL/AXIS/1
initial cam rotation
#      DIR  FRAME_ID  GRNOD_ID
         Y         1     26056
#                Vxt                 Vyt                 Vzt                  VR
                   0                   0                   0                 314
/GRNOD/NODE/26056
cam nodes
       698       699       702       705       706       707       708       709       710       711
       716       718       720       722       723       725       726       728       746       747
       748       749       750       752       754       755       756       758       759       760
       761       763       766       768       796       798       802       803       804       805
       806       807       808       820       821       822       823       824       825       826
       851       852       854       856       858       860       861       863       864       866
       867       869       870       872       873       875       920       925       927       928
       930       932       934       935       937       938       939       941       942       943
       944       946       947       948       949       951       952       953       954       956
       957       958       959       961       964       966      1016      1020      1021      1023
      1024      1025      1026      1028      1030      1031      1033      1034      1035      1037
      1038      1039      1040      1042      1043      1044      1045      1047      1048      1049
      1050      1052      1053      1054      1055      1057      1058      1059      1060      1062
      1096      1097      1098      1099      1100      1101      1102      1103      1104      1105
      1106      1107      1108      1109      1110      1111      1112      1113      1148      1152
      1153      1155      1156      1157      1158      1160      1162      1163      1165      1166
      1167      1169      1170      1171      1172      1174      1175      1176      1177      1179
      1180      1181      1182      1184      1185      1186      1187      1189      1190      1191
      1192      1194      1228      1229      1230      1231      1232      1233      1234      1235
      1236      1237      1238      1239      1240      1241      1242      1243      1244      1245
# ... 158 like lines cut
#---1----|----2----|----3----|----4----|----5----|----6----|----7----|----8----|----9----|---10----|
#- 11. SENSORS:
#---1----|----2----|----3----|----4----|----5----|----6----|----7----|----8----|----9----|---10----|
/SENSOR/TIME/1
time
#         Tdelay
                2E-4
#---1----|----2----|----3----|----4----|----5----|----6----|----7----|----8----|----9----|---10----|
#- 12. INTERFACES:
#---1----|----2----|----3----|----4----|----5----|----6----|----7----|----8----|----9----|---10----|
/INTER/LAGMUL/TYPE16/1
interface 16
# grnod_id   grbrick
     13013         3
#                        Itied
                             0
/GRNOD/NODE/13013
upper valve surface nodes
       249       250       251       252       253       254       255       256       257       258
       259       260       261       262       263       264       265       266       267       268
       269       270       271       272       273       274       275       276       277       278
       279       280       281       282       283       284       285       286       287       288
       289       290       291       292       293       294       377       378       379       380
       381       382       383       384       385       386       387       388       389       390
       391       392       393       394       397       399       401       403       404       406
       408       409       411       413       414       415       416       417       418       419
       420       421       422       507       508       510       511       512       514       516
       517       519       521       522       524       526       527       528       529       530
       531       532       533       534       535       536       537       538       539       540
       541       542       543       544       545       546       547       548       549       550
       635       636       638       639       640       642       644       645       647       649
       650       655       657       659       660       662       664       665       667       669
       670       671       672       673       674       675       676       677       678
/GRBRIC/PART/3
external came
         2
#---1----|----2----|----3----|----4----|----5----|----6----|----7----|----8----|----9----|---10----|
#- 13. RIGID BODIES:
#---1----|----2----|----3----|----4----|----5----|----6----|----7----|----8----|----9----|---10----|
/RBODY/1
valve rigid body
#     RBID     ISENS     NSKEW    ISPHER                MASS   Gnod_id     IKREM      ICOG   Surf_id
      3001         0         0         0                   0         1         0         0         0
#                Jxx                 Jyy                 Jzz
                   0                   0                   0
#                Jxy                 Jyz                 Jxz
                   0                   0                   0
#Ioptoff
         0
/GRNOD/NODE/1
valve rigid body nodes
         1         2         3         4         5         6         7         8         9        10
        11        12        13        14        15        16        17        18        19        20
        21        22        23        24        25        26        27        28        29        30
        31        32        33        34        35        36        37        38        39        40
        41        42        43        44        45        46        49        50        52        53
        54        56        58        59        61        63        64        66        68        69
        70        71        72        73        74        75        76        77        78        79
        80        81        82        83        84        85        86        87        88        89
        90        91        92        93        94        95        96        97        98        99
       100       101       102       103       104       105       106       107       108       109
       110       113       115       117       119       120       122       124       125       127
       129       130       131       132       133       134       135       136       137       138
       141       142       144       145       146       148       150       151       153       155
       156       161       163       165       166       168       170       171       173       175
       176       177       178       179       180       181       182       183       184
#---1----|----2----|----3----|----4----|----5----|----6----|----7----|----8----|----9----|---10----|
/RBODY/2
cam rigid body
#     RBID     ISENS     NSKEW    ISPHER                MASS   Gnod_id     IKREM      ICOG   Surf_id
      5776         0         0         0                   0     26050         0         3         0
#                Jxx                 Jyy                 Jzz
                   0                   0                   0
#                Jxy                 Jyz                 Jxz
                   0                   0                   0
#Ioptoff
         0
/GRNOD/NODE/26050
cam rigid body nodes
      3468      3471      3472      3474      3475      3483      3484      3485      3486      3501
      3503      3504      3505      3506      3507      3508      3509      3510      3511      3515
      3516      3541      3543      3546      3548      3549      3551      3553      3554      3555
      3556      3557      3558      3559      3562      3564      3565      3581      3582      3583
      3584      3585      3586      3587      3588      3589      3590      3598      3599      3600
      3601      3602      3603      3604      3606      3607      3608      3609      3610      3611
      3612      3613      3614      3615      3616      3617      3648      3651      3652      3653
      3654      3655      3656      3657      3664      3667      3668      3671      3673      3674
      3676      3678      3679      3681      3683      3684      3686      3688      3689      3739
      3741      3744      3745      3746      3747      3748      3749      3750      3751      3752
      3753      3758      3759      3760      3761      3762      3763      3764      3765      3766
      3767      3768      3769      3770      3771      3772      3773      3774      3775      3776
      3777      3778      3779      3780      3781      3782      3783      3784      3785      3834
      3835      3837      3839      3840      3841      3842      3843      3844      3845      3846
      3847      3848      3849      3854      3855      3856      3857      3858      3859      3860
      3861      3862      3863      3864      3865      3885      3886      3887      3888      3889
      3890      3891      3892      3893      3894      3895      3896      3897      3898      3899
      3900      3901      3902      3903      3904      3905      3906      3907      3908      3909
      3910      3911      3912      3913      3914      3915      3916      3917      3966      3967
      3969      3971      3972      3973      3974      3975      3976      3977      3978      3979
# ... 60 like lines cut
#---1----|----2----|----3----|----4----|----5----|----6----|----7----|----8----|----9----|---10----|
#- 14. IMPOSED VELOCITIES:
#---1----|----2----|----3----|----4----|----5----|----6----|----7----|----8----|----9----|---10----|
/IMPVEL/1
imposed cam rotation
#funct_IDT       Dir   skew_ID sensor_ID  grnod_ID  frame_ID     Icoor
         1        YY         0         1     13073         0         0
#           Ascale_x            Fscale_Y              Tstart               Tstop
                   0                 314                   0                   0
#---1----|----2----|----3----|----4----|----5----|----6----|----7----|----8----|----9----|---10----|
#- 15. TIME HISTORIES:
#---1----|----2----|----3----|----4----|----5----|----6----|----7----|----8----|----9----|---10----|
/TH/NODE/1
valve rigid body master node
#     var1      var2      var3      var4      var5      var6      var7      var8      var9     var10
AZ        DZ        VZ        
#    NODid     Iskew                                           NODname
      3001         0masternode_plate_group_0                                                        
#---1----|----2----|----3----|----4----|----5----|----6----|----7----|----8----|----9----|---10----|
/TH/NODE/6
high extremity cam node
#     var1      var2      var3      var4      var5      var6      var7      var8      var9     var10
ARY       AX        AZ        DX        DZ        VRY       VX        VZ        
#    NODid     Iskew                                           NODname
      1363         0node_came_group_0                                                               
#---1----|----2----|----3----|----4----|----5----|----6----|----7----|----8----|----9----|---10----|
/TH/NODE/7
cam rigid body master node
#     var1      var2      var3      var4      var5      var6      var7      var8      var9     var10
ARY       DZ        VRY       
#    NODid     Iskew                                           NODname
      5776         0masternode_came_group_0                                                         
#---1----|----2----|----3----|----4----|----5----|----6----|----7----|----8----|----9----|---10----|
/END
#---1----|----2----|----3----|----4----|----5----|----6----|----7----|----8----|----9----|---10----|
