#RADIOSS STARTER
#---1----|----2----|----3----|----4----|----5----|----6----|----7----|----8----|----9----|---10----|
/BEGIN
Cantilever_beam                                                                 
      2021         0
                  Mg                  mm                   s
                  Mg                  mm                   s
#---1----|----2----|----3----|----4----|----5----|----6----|----7----|----8----|----9----|---10----|
#-  1. CONTROL CARDS:
#---1----|----2----|----3----|----4----|----5----|----6----|----7----|----8----|----9----|---10----|
/TITLE
Cantilever_beam
#---1----|----2----|----3----|----4----|----5----|----6----|----7----|----8----|----9----|---10----|
/DEF_SHELL
#   ISHELL    ISMSTR    ITHICK     IPLAS   ISTRAIN                        I_SH3N     IDRIL
         0         0         0         0         0                             0         0
#---1----|----2----|----3----|----4----|----5----|----6----|----7----|----8----|----9----|---10----|
/DEF_SOLID
#  I_SOLID    ISMSTR     ICPRE             ITETRA4  ITETRA10      IMAS    IFRAME
         0         0         0                   0         0         0         0
#---1----|----2----|----3----|----4----|----5----|----6----|----7----|----8----|----9----|---10----|
#-  2. MATERIALS:
#---1----|----2----|----3----|----4----|----5----|----6----|----7----|----8----|----9----|---10----|
/MAT/ELAST/1
Elastic Steel
#              RHO_I
              7.8E-9                   0
#                  E                  nu
              210000                  .3
#---1----|----2----|----3----|----4----|----5----|----6----|----7----|----8----|----9----|---10----|
#-  3. NODES:
#---1----|----2----|----3----|----4----|----5----|----6----|----7----|----8----|----9----|---10----|
/NODE
       327                   0            1679.996                   0
       328                  10            1679.996                   0
       329                   0            1689.996                   0
       330                  10            1689.996                   0
       331                   0            1699.996                   0
       332                  10            1699.996                   0
       333                   0            1709.996                   0
       334                  10            1709.996                   0
       335                   0            1719.996                   0
       336                  10            1719.996                   0
       337                   0            1729.996                   0
       338                  10            1729.996                   0
       339                   0            1739.996                   0
       340                  10            1739.996                   0
       341                   0            1749.996                   0
       342                  10            1749.996                   0
       343                   0            1759.996                   0
       344                  10            1759.996                   0
       345                   0            1769.996                   0
       346                  10            1769.996                   0
# ... 768 like lines cut
#---1----|----2----|----3----|----4----|----5----|----6----|----7----|----8----|----9----|---10----|
#-  4. BOUNDARY CONDITIONS:
#---1----|----2----|----3----|----4----|----5----|----6----|----7----|----8----|----9----|---10----|
/BCS/1
XYZ_1
#  Tra rot   skew_ID  grnod_ID
   111 111         0        21
/GRNOD/NODE/21
BCS_1
       365       366       767       768       803       820
#---1----|----2----|----3----|----4----|----5----|----6----|----7----|----8----|----9----|---10----|
/BCS/3
XYZ_2
#  Tra rot   skew_ID  grnod_ID
   111 111         0        22
/GRNOD/NODE/22
BCS_2
       929       930       949       955
#---1----|----2----|----3----|----4----|----5----|----6----|----7----|----8----|----9----|---10----|
/BCS/4
XYZ_3
#  Tra rot   skew_ID  grnod_ID
   111 111         0        23
/GRNOD/NODE/23
BCS_3
      1009      1010      1049      1050      1069      1075      1300      1302      1306      1423
      1424      1428      1493      1638      1655
#---1----|----2----|----3----|----4----|----5----|----6----|----7----|----8----|----9----|---10----|
#-  5. PARTS:
#---1----|----2----|----3----|----4----|----5----|----6----|----7----|----8----|----9----|---10----|
/PART/1
Bricks
         1         1         0
#---1----|----2----|----3----|----4----|----5----|----6----|----7----|----8----|----9----|---10----|
# BRICK elements of /PART/1/Bricks:
#---1----|----2----|----3----|----4----|----5----|----6----|----7----|----8----|----9----|---10----|
/BRICK/1
       164       327       328       330       329       729       730       732       731
       165       329       330       332       331       731       732       734       733
       166       331       332       334       333       733       734       736       735
       167       333       334       336       335       735       736       738       737
       168       335       336       338       337       737       738       740       739
       169       337       338       340       339       739       740       742       741
       170       339       340       342       341       741       742       744       743
       171       341       342       344       343       743       744       746       745
       172       343       344       346       345       745       746       748       747
       173       345       346       348       347       747       748       750       749
       174       347       348       350       349       749       750       752       751
       175       349       350       352       351       751       752       754       753
       176       351       352       354       353       753       754       756       755
       177       353       354       356       355       755       756       758       757
       178       355       356       358       357       757       758       760       759
       179       357       358       360       359       759       760       762       761
       180       359       360       362       361       761       762       764       763
       181       361       362       364       363       763       764       766       765
       182       363       364       366       365       765       766       768       767
       202       759       760       762       761       826       825       850       824
# ... 341 like lines cut
#---1----|----2----|----3----|----4----|----5----|----6----|----7----|----8----|----9----|---10----|
#-  6. GEOMETRICAL SETS:
#---1----|----2----|----3----|----4----|----5----|----6----|----7----|----8----|----9----|---10----|
/PROP/SOLID/1
H8C
#   Isolid    Ismstr               Icpre  Itetra10     Inpts   Itetra4    Iframe                  dn
        17         0                   0         0         0         0         0                   0
#                q_a                 q_b                   h            LAMBDA_V                MU_V
                   0                   0                   0                   0                   0
#             dt_min
                   0
#---1----|----2----|----3----|----4----|----5----|----6----|----7----|----8----|----9----|---10----|
#-  7. FUNCTIONS:
#---1----|----2----|----3----|----4----|----5----|----6----|----7----|----8----|----9----|---10----|
/FUNCT_SMOOTH/1
Smooth Load Function
#            Ascalex             Fscaley             Ashiftx             Fshifty 
                   0                   0                   0                   0
#                  X                   Y
                   0                   0
                   1                   1
#---1----|----2----|----3----|----4----|----5----|----6----|----7----|----8----|----9----|---10----|
#-  8. CONCENTRATED LOADS:
#---1----|----2----|----3----|----4----|----5----|----6----|----7----|----8----|----9----|---10----|
/CLOAD/1
CLOAD 1
#funct_IDT       Dir   skew_ID sensor_ID  grnod_ID                       Ascalex             Fscaley
         1         Z         0         0         1                            .1               -1000
/GRNOD/NODE/1
CLOAD_1
      1737
#---1----|----2----|----3----|----4----|----5----|----6----|----7----|----8----|----9----|---10----|
/CLOAD/2
CLOAD_2
#funct_IDT       Dir   skew_ID sensor_ID  grnod_ID                       Ascalex             Fscaley
         1         Z         0         0         2                            .1               -1000
/GRNOD/NODE/2
CLOAD_2
      1736
#---1----|----2----|----3----|----4----|----5----|----6----|----7----|----8----|----9----|---10----|
/CLOAD/3
CLOAD_3
#funct_IDT       Dir   skew_ID sensor_ID  grnod_ID                       Ascalex             Fscaley
         1         Z         0         0         3                            .1               -1000
/GRNOD/NODE/3
CLOAD_3
      1738
#---1----|----2----|----3----|----4----|----5----|----6----|----7----|----8----|----9----|---10----|
#-  9. RIGID BODIES:
#---1----|----2----|----3----|----4----|----5----|----6----|----7----|----8----|----9----|---10----|
/RBODY/1
10mm
#     RBID     ISENS     NSKEW    ISPHER                MASS   Gnod_id     IKREM      ICOG   Surf_id
      1736         0         0         0                   0        31         0         0         0
#                Jxx                 Jyy                 Jzz
                1E-4                1E-4                1E-4
#                Jxy                 Jyz                 Jxz
                   0                   0                   0
#  Ioptoff               Ifail
         0         0         0
/GRNOD/NODE/31
RBODY 1
       891       892       952       962
#---1----|----2----|----3----|----4----|----5----|----6----|----7----|----8----|----9----|---10----|
/RBODY/2
5mm
#     RBID     ISENS     NSKEW    ISPHER                MASS   Gnod_id     IKREM      ICOG   Surf_id
      1737         0         0         0                   0        32         0         0         0
#                Jxx                 Jyy                 Jzz
                1E-4                1E-4                1E-4
#                Jxy                 Jyz                 Jxz
                   0                   0                   0
#  Ioptoff               Ifail
         0         0         0
/GRNOD/NODE/32
RBODY 2
       327       328       729       730       806       836
#---1----|----2----|----3----|----4----|----5----|----6----|----7----|----8----|----9----|---10----|
/RBODY/3
2.5mm
#     RBID     ISENS     NSKEW    ISPHER                MASS   Gnod_id     IKREM      ICOG   Surf_id
      1738         0         0         0                   0        33         0         0         0
#                Jxx                 Jyy                 Jzz
                1E-4                1E-4                1E-4
#                Jxy                 Jyz                 Jxz
                   0                   0                   0
#  Ioptoff               Ifail
         0         0         0
/GRNOD/NODE/33
RBODY 3
       971       972      1011      1012      1072      1082      1091      1094      1100      1307
      1309      1311      1501      1528      1707
#---1----|----2----|----3----|----4----|----5----|----6----|----7----|----8----|----9----|---10----|
#- 10. TIME HISTORIES:
#---1----|----2----|----3----|----4----|----5----|----6----|----7----|----8----|----9----|---10----|
/TH/NODE/1
TH_NODE
#     var1      var2      var3      var4      var5      var6      var7      var8      var9     var10
DEF       
#    NODid     Iskew                                           NODname
      1736         010mm                                                                            
      1737         05mm                                                                             
      1738         02.5mm                                                                           
#---1----|----2----|----3----|----4----|----5----|----6----|----7----|----8----|----9----|---10----|
/TH/RBODY/2
TH_RBODY
#     var1      var2      var3      var4      var5      var6      var7      var8      var9     var10
DEF       
#     Obj1      Obj2      Obj3      Obj4      Obj5      Obj6      Obj7      Obj8      Obj9     Obj10
         1         2         3
#---1----|----2----|----3----|----4----|----5----|----6----|----7----|----8----|----9----|---10----|
/END
#---1----|----2----|----3----|----4----|----5----|----6----|----7----|----8----|----9----|---10----|
