#RADIOSS STARTER
/BEGIN
BOXIMP - shell box beam against rigid wall (pyradioss example)
/NODE
         1        0.0000000000        0.0000000000        0.5000000000
         2        2.0000000000        0.0000000000        0.5000000000
         3        4.0000000000        0.0000000000        0.5000000000
         4        6.0000000000        0.0000000000        0.5000000000
         5        8.0000000000        0.0000000000        0.5000000000
         6       10.0000000000        0.0000000000        0.5000000000
         7       10.0000000000        2.0000000000        0.5000000000
         8       10.0000000000        4.0000000000        0.5000000000
         9       10.0000000000        6.0000000000        0.5000000000
        10       10.0000000000        8.0000000000        0.5000000000
        11       10.0000000000       10.0000000000        0.5000000000
        12        8.0000000000       10.0000000000        0.5000000000
        13        6.0000000000       10.0000000000        0.5000000000
        14        4.0000000000       10.0000000000        0.5000000000
        15        2.0000000000       10.0000000000        0.5000000000
        16        0.0000000000       10.0000000000        0.5000000000
        17        0.0000000000        8.0000000000        0.5000000000
        18        0.0000000000        6.0000000000        0.5000000000
        19        0.0000000000        4.0000000000        0.5000000000
        20        0.0000000000        2.0000000000        0.5000000000
# ... 200 like lines cut
/SHELL/1
         1         1         2        22        21
         2         2         3        23        22
         3         3         4        24        23
         4         4         5        25        24
         5         5         6        26        25
         6         6         7        27        26
         7         7         8        28        27
         8         8         9        29        28
         9         9        10        30        29
        10        10        11        31        30
        11        11        12        32        31
        12        12        13        33        32
        13        13        14        34        33
        14        14        15        35        34
        15        15        16        36        35
        16        16        17        37        36
        17        17        18        38        37
        18        18        19        39        38
        19        19        20        40        39
        20        20         1        21        40
# ... 180 like lines cut
/PART/1
box walls
         1         1
/MAT/LAW2/1
mild steel Johnson-Cook
   7.8e-6
     210.0       0.3
      0.25       0.4       0.5
/PROP/SHELL/1
box wall 0.5mm
         1         0         0         0
      0.01      0.01      0.01       0.0       0.0
         3         0       0.5
/GRNOD/PART/1
whole box
1
/INIVEL/TRA/1
initial impact velocity
       0.0       0.0      -10.0         1
/RWALL/PLANE/1
ground plane
         0         0       0.0       0.0
       0.0       0.0       0.0
       0.0       0.0       1.0
/TH/PART/1
box energies
IE KE
1
/END
