#RADIOSS STARTER
#--------------------------------------------------------------------------------------------------|
#- RADIOSS DECK WRITTEN BY HyperCrash
#HyperCrash 2017 (64 bits) 
#Mon Dec 18 12:55:27 2017
#-
#-
#- DATE	Mon Dec 18 12:55:27 2017
#--------------------------------------------------------------------------------------------------|
#---1----|----2----|----3----|----4----|----5----|----6----|----7----|----8----|----9----|---10----|
/BEGIN
S_BEAM                                                                          
      2017         0
                   g                  mm                  ms
                   g                  mm                  ms
#---1----|----2----|----3----|----4----|----5----|----6----|----7----|----8----|----9----|---10----|
#-  1. CONTROL CARDS:
#---1----|----2----|----3----|----4----|----5----|----6----|----7----|----8----|----9----|---10----|
/TITLE
s-beam test
#---1----|----2----|----3----|----4----|----5----|----6----|----7----|----8----|----9----|---10----|
#include QEPH_prop_shell.txt
#---1----|----2----|----3----|----4----|----5----|----6----|----7----|----8----|----9----|---10----|
/ANALY
#    N2D3D             IPARITH      ISUB
         0                   0         0
#---1----|----2----|----3----|----4----|----5----|----6----|----7----|----8----|----9----|---10----|
/DEF_SHELL
#   ISHELL    ISMSTR    ITHICK     IPLAS   ISTRAIN                        I_SH3N     IDRIL
         0         0         0         0         0                             1         0
#---1----|----2----|----3----|----4----|----5----|----6----|----7----|----8----|----9----|---10----|
/DEF_SOLID
#  I_SOLID    ISMSTR             ISTRAIN                                  IFRAME
         0         0                   0                                       0
#---1----|----2----|----3----|----4----|----5----|----6----|----7----|----8----|----9----|---10----|
/IOFLAG
#     IPRI               IGTYP     IOUTP    IOUTYY   IROOTYY     IDROT
         5                   0         0         0         0         0
#---1----|----2----|----3----|----4----|----5----|----6----|----7----|----8----|----9----|---10----|
/SPMD
#   DOMDEC     Nproc              Dkword             Nthread
         0         0                   0                   1
#---1----|----2----|----3----|----4----|----5----|----6----|----7----|----8----|----9----|---10----|
#-  2. MATERIALS:
#---1----|----2----|----3----|----4----|----5----|----6----|----7----|----8----|----9----|---10----|
/MAT/PLAS_JOHNS/1
STEEL
#              RHO_I
               .0079                   0
#                  E                  Nu     Iflag
              199355           .30000001         0
#                  a                   b                   n           EPS_p_max            SIG_max0
           185.39999                 540           .31999999                   0           336.60001
#                  c           EPS_DOT_0       ICC   Fsmooth               F_cut               Chard
                   0                   0         0         0                   0                   0
#                  m              T_melt              rhoC_p                 T_r
                   0                   0                   0                   0
#---1----|----2----|----3----|----4----|----5----|----6----|----7----|----8----|----9----|---10----|
#-  3. NODES:
#---1----|----2----|----3----|----4----|----5----|----6----|----7----|----8----|----9----|---10----|
/NODE
         1                   0                  80                   0
        51                   0                  80                  10
       101                   0                  80                  20
       151                   0                  80                  30
       201                   0                  80                  40
       249                 480                   0                  40
       251                   0                  70                  40
       301                   0                  60                  40
       351                   0                  50                  40
       401                   0                  40                  40
       451                   0                  30                  40
       501                   0                  20                  40
       551                   0                  10                  40
       601                   0                   0                  40
       617                 160                   0                  40
       649                 480                 -80                  40
       651                   0                   0                  30
       701                   0                   0                  20
       751                   0                   0                  10
       801                   0                   0                   0
# ... 6446 like lines cut
#---1----|----2----|----3----|----4----|----5----|----6----|----7----|----8----|----9----|---10----|
#-  4. BOUNDARY CONDITIONS:
#---1----|----2----|----3----|----4----|----5----|----6----|----7----|----8----|----9----|---10----|
/BCS/1
left end of the beam
#  Tra rot   skew_ID  grnod_ID
   001 111         0        13
/GRNOD/NODE/13
BCS_group_13_of_NODE
      8074
#---1----|----2----|----3----|----4----|----5----|----6----|----7----|----8----|----9----|---10----|
/BCS/3
right end of the beam
#  Tra rot   skew_ID  grnod_ID
   101 111         0        15
/GRNOD/NODE/15
BCS_group_15_of_NODE
      8075
#---1----|----2----|----3----|----4----|----5----|----6----|----7----|----8----|----9----|---10----|
#-  5. PARTS:
#---1----|----2----|----3----|----4----|----5----|----6----|----7----|----8----|----9----|---10----|
/PART/1
PID 1
         1         1         1
#---1----|----2----|----3----|----4----|----5----|----6----|----7----|----8----|----9----|---10----|
# SHELL elements of /PART/1/PID 1:
#---1----|----2----|----3----|----4----|----5----|----6----|----7----|----8----|----9----|---10----|
/SHELL/1
      1537      1930      1932      1927      1928                                                 0
      1538      1932      1923      1924      1927                                                 0
      1539      1916      1917      1933      1931                                                 0
      1540      1931      1933      1932      1930                                                 0
      1541      1917      1918      1922      1933                                                 0
      1542      1933      1922      1923      1932                                                 0
      1543      1907      1934      1929      1906                                                 0
      1544      1934      1930      1928      1929                                                 0
      1545      1909      1915      1935      1908                                                 0
      1546      1908      1935      1934      1907                                                 0
      1547      1915      1916      1931      1935                                                 0
      1548      1935      1931      1930      1934                                                 0
      1549      1936      1938      1893      1894                                                 0
      1550      1938      1926      1892      1893                                                 0
      1551      1928      1927      1939      1937                                                 0
      1552      1937      1939      1938      1936                                                 0
      1553      1927      1924      1925      1939                                                 0
      1554      1939      1925      1926      1938                                                 0
      1555      1904      1940      1895      1896                                                 0
      1556      1940      1936      1894      1895                                                 0
# ... 1580 like lines cut
#---1----|----2----|----3----|----4----|----5----|----6----|----7----|----8----|----9----|---10----|
/PART/2
PID 2
         1         1         1
#---1----|----2----|----3----|----4----|----5----|----6----|----7----|----8----|----9----|---10----|
# SHELL elements of /PART/2/PID 2:
#---1----|----2----|----3----|----4----|----5----|----6----|----7----|----8----|----9----|---10----|
/SHELL/2
      7937      8147      8149      8144      8145                                                 0
      7938      8149      8140      8141      8144                                                 0
      7939      8133      8134      8150      8148                                                 0
      7940      8148      8150      8149      8147                                                 0
      7941      8134      8135      8139      8150                                                 0
      7942      8150      8139      8140      8149                                                 0
      7943      8124      8151      8146      8123                                                 0
      7944      8151      8147      8145      8146                                                 0
      7945      8126      8132      8152      8125                                                 0
      7946      8125      8152      8151      8124                                                 0
      7947      8132      8133      8148      8152                                                 0
      7948      8152      8148      8147      8151                                                 0
      7949      8153      8155      8110      8111                                                 0
      7950      8155      8143      8109      8110                                                 0
      7951      8145      8144      8156      8154                                                 0
      7952      8154      8156      8155      8153                                                 0
      7953      8144      8141      8142      8156                                                 0
      7954      8156      8142      8143      8155                                                 0
      7955      8121      8157      8112      8113                                                 0
      7956      8157      8153      8111      8112                                                 0
# ... 3180 like lines cut
#---1----|----2----|----3----|----4----|----5----|----6----|----7----|----8----|----9----|---10----|
/PART/3
PID 3
         1         1         1
#---1----|----2----|----3----|----4----|----5----|----6----|----7----|----8----|----9----|---10----|
# SHELL elements of /PART/3/PID 3:
#---1----|----2----|----3----|----4----|----5----|----6----|----7----|----8----|----9----|---10----|
/SHELL/3
      6337      6636      6640      6633      6634                                                 0
      6338      6640      6628      6629      6633                                                 0
      6339      6637      6639      6640      6636                                                 0
      6340      6639      6627      6628      6640                                                 0
      6341      6620      6621      6641      6638                                                 0
      6342      6638      6641      6639      6637                                                 0
      6343      6621      6622      6626      6641                                                 0
      6344      6641      6626      6627      6639                                                 0
      6345      6609      6642      6643      6608                                                 0
      6346      6608      6643      6635      6607                                                 0
      6347      6642      6637      6636      6643                                                 0
      6348      6643      6636      6634      6635                                                 0
      6349      6611      6619      6644      6610                                                 0
      6350      6610      6644      6642      6609                                                 0
      6351      6619      6620      6638      6644                                                 0
      6352      6644      6638      6637      6642                                                 0
      6353      6646      6648      6649      6645                                                 0
      6354      6645      6649      6593      6594                                                 0
      6355      6648      6631      6632      6649                                                 0
      6356      6649      6632      6592      6593                                                 0
# ... 1580 like lines cut
#---1----|----2----|----3----|----4----|----5----|----6----|----7----|----8----|----9----|---10----|
#-  6. SUBSETS:
#---1----|----2----|----3----|----4----|----5----|----6----|----7----|----8----|----9----|---10----|
/SUBSET/1
CRA2D00
#---1----|----2----|----3----|----4----|----5----|----6----|----7----|----8----|----9----|---10----|
#-  7. INITIAL VELOCITIES:
#---1----|----2----|----3----|----4----|----5----|----6----|----7----|----8----|----9----|---10----|
/INIVEL/TRA/4
initial velocity
#                 Vx                  Vy                  Vz   Gnod_id   Skew_id
                   5                   0                   0        16         0
/GRNOD/NODE/16
INIVEL_group_16_of_NODE
      8074
#---1----|----2----|----3----|----4----|----5----|----6----|----7----|----8----|----9----|---10----|
#-  8. INTERFACES:
#---1----|----2----|----3----|----4----|----5----|----6----|----7----|----8----|----9----|---10----|
/INTER/TYPE7/1
self-contact
#  Slav_id   Mast_id      Istf      Ithe      Igap                Ibag      Idel     Icurv      Iadm
        20        19         0         0         0                   0         0         0         0
#          Fscalegap             Gap_max             Fpenmax
                   0                   0                   0
#              Stmin               Stmax          %mesh_size               dtmin  Irem_gap   Irem_i2
                   0                   0                   0                   0         0         0
#              Stfac                Fric              Gapmin              Tstart               Tstop
                   0                   0                   0                   0                   0
#      IBC                        Inacti                VisS                VisF              Bumult
       000                             0                   0                   0                   0
#    Ifric    Ifiltr               Xfreq     Iform   sens_ID   fct_IDf             AscaleF
         0         0                   0         0         0         0                   0
/GRNOD/SURF/20
INTER_group_20_of_SURF
        19
/SURF/PART/19
INTER_group_19_of_PART
         1         2         3
#---1----|----2----|----3----|----4----|----5----|----6----|----7----|----8----|----9----|---10----|
#-  9. RIGID BODIES:
#---1----|----2----|----3----|----4----|----5----|----6----|----7----|----8----|----9----|---10----|
/RBODY/1
left
#     RBID     ISENS     NSKEW    ISPHER                MASS   Gnod_id     IKREM      ICOG   Surf_id
      8074         0         0         0              500000        12         0         0         0
#                Jxx                 Jyy                 Jzz
                   0                   0                   0
#                Jxy                 Jyz                 Jxz
                   0                   0                   0
#Ioptoff
         0
/GRNOD/NODE/12
RBODY_group_12_of_NODE
         1        51       101       151       201       251       301       351       401       451
       501       551       601       651       701       751       801      1047      1439      1635
      1636      1637      1638      1639      1640      1641      1855      1856      1857      1858
      3457      3458      3459      3460      3461      3462      3463      3464      5063      5064
      5065      5066      5067      5068      5069      5070      5071      5072      5073      5074
      5075      5076      5077      6578      6579      6580      6581      6582      6583      6584
      6585      6586      6587      6588
#---1----|----2----|----3----|----4----|----5----|----6----|----7----|----8----|----9----|---10----|
/RBODY/2
right
#     RBID     ISENS     NSKEW    ISPHER                MASS   Gnod_id     IKREM      ICOG   Surf_id
      8075         0         0         0                   0        14         0         0         0
#                Jxx                 Jyy                 Jzz
                   0                   0                   0
#                Jxy                 Jyz                 Jxz
                   0                   0                   0
#Ioptoff
         0
/GRNOD/NODE/14
RBODY_group_14_of_NODE
       249       649      1095      1487      1741      1742      1743      1744      1745      1746
      1747      1748      1749      1750      1751      1752      1753      1754      1755      3344
      3345      3346      3347      3348      3349      3350      3351      3352      3353      3354
      3355      3356      3357      3358      5048      5049      5050      5051      5052      5053
      5054      5055      5056      5057      5058      5059      5060      5061      5062      7054
      7055      7056      7057      7058      7059      7060      7061      7062      7063      7064
      7065      7066      7067      7068
#---1----|----2----|----3----|----4----|----5----|----6----|----7----|----8----|----9----|---10----|
#- 10. ADDED MASSES:
#---1----|----2----|----3----|----4----|----5----|----6----|----7----|----8----|----9----|---10----|
#- 11. TIME HISTORIES:
#---1----|----2----|----3----|----4----|----5----|----6----|----7----|----8----|----9----|---10----|
/TH/PART/1
Part selection for time history
#     var1      var2      var3      var4      var5      var6      var7      var8      var9     var10
DEF       
#     Obj1      Obj2      Obj3      Obj4      Obj5      Obj6      Obj7      Obj8      Obj9     Obj10
         1         2         3
#---1----|----2----|----3----|----4----|----5----|----6----|----7----|----8----|----9----|---10----|
/TH/NODE/2
Node selection for time history
#     var1      var2      var3      var4      var5      var6      var7      var8      var9     var10
DX        
#    NODid     Iskew                                           NODname
         1         0      Displacement                                                              
#---1----|----2----|----3----|----4----|----5----|----6----|----7----|----8----|----9----|---10----|
/TH/RBODY/3
TH RBODY
#     var1      var2      var3      var4      var5      var6      var7      var8      var9     var10
DEF       
#     Obj1      Obj2      Obj3      Obj4      Obj5      Obj6      Obj7      Obj8      Obj9     Obj10
         1         2
#---1----|----2----|----3----|----4----|----5----|----6----|----7----|----8----|----9----|---10----|
/TH/INTER/4
TH INTER
#     var1      var2      var3      var4      var5      var6      var7      var8      var9     var10
DEF       
#     Obj1      Obj2      Obj3      Obj4      Obj5      Obj6      Obj7      Obj8      Obj9     Obj10
         1
#---1----|----2----|----3----|----4----|----5----|----6----|----7----|----8----|----9----|---10----|
/TH/SHEL/5
TH SHELL
#     var1      var2      var3      var4      var5      var6      var7      var8      var9     var10
DEF       
#     Obj1      Obj2      Obj3      Obj4      Obj5      Obj6      Obj7      Obj8      Obj9     Obj10
      8444
      8442
      7871
      7869
      7879
#---1----|----2----|----3----|----4----|----5----|----6----|----7----|----8----|----9----|---10----|
/END
#---1----|----2----|----3----|----4----|----5----|----6----|----7----|----8----|----9----|---10----|
