#RADIOSS STARTER
/BEGIN
HAT_PART.inc                                                                    
       100         0
                  Mg                  mm                   s
                  Mg                  mm                   s
#---1----|----2----|----3----|----4----|----5----|----6----|----7----|----8----|----9----|---10----|
#-  1. MATERIALS:
#---1----|----2----|----3----|----4----|----5----|----6----|----7----|----8----|----9----|---10----|
/MAT/PLAS_JOHNS/25
Steel
#        Init. dens.          Ref. dens.
              7.8E-9                   0
#                  E                  Nu
              210000                  .3
#                  a                   b                   n             Eps_max              sigmax
                 250                 350                  .3                   0                 400
#                  c                EPS0       Icc   Fsmooth               F_CUT
                   0                   0         0         0                   0
#                  m              T_melt               rhoCp                 T_i
                   0                   0                   0                   0
#---1----|----2----|----3----|----4----|----5----|----6----|----7----|----8----|----9----|---10----|
#-  2. NODES:
#---1----|----2----|----3----|----4----|----5----|----6----|----7----|----8----|----9----|---10----|
/NODE
     27574            -644.888            -429.714            350.5317
     27575            -644.888            -429.714            325.9572
     27576            -644.888            -401.582            378.1323
     27577            -644.888            -406.946            377.5685
     27579            -644.888            -412.476            376.9873
     27580            -644.888            -423.702            375.8073
     27581            -644.888            -429.714            356.6753
     27584            -644.888            -418.006            376.4061
     27585            -644.888            -429.714            319.8136
     27589            -644.888            -427.983            302.8599
     27590            -644.888            -412.537            299.5084
     27591            -644.888            -429.714             362.819
     27592            -644.888            -429.714            344.3881
     27593            -644.888            -429.714            332.1009
     27594            -644.888            -429.714            369.1314
     27595            -644.888            -429.714            338.2445
     27596            -644.888            -427.973            373.6095
     27597            -644.888            -429.714              313.67
     27598            -644.888            -429.714            307.3593
     27599            -644.888            -401.658             298.365
# ... 1663 like lines cut
#---1----|----2----|----3----|----4----|----5----|----6----|----7----|----8----|----9----|---10----|
#-  3. PARTS:
#---1----|----2----|----3----|----4----|----5----|----6----|----7----|----8----|----9----|---10----|
/PART/26
PSHELL26
        25        25         0
#---1----|----2----|----3----|----4----|----5----|----6----|----7----|----8----|----9----|---10----|
# SHELL elements of /PART/26/PSHELL26:
#---1----|----2----|----3----|----4----|----5----|----6----|----7----|----8----|----9----|---10----|
/SHELL/26
     25601     28553     28612     29780     29778                                                 0
     25602     28554     28613     29776     29774                                                 0
     25603     28554     29721     29768     29774                                                 0
     25604     28612     28613     29776     29780                                                 0
     25605     28732     28760     29773     29772                                                 0
     25606     28732     29424     29770     29772                                                 0
     25607     28733     28759     29766     29771                                                 0
     25608     28759     28760     29773     29766                                                 0
     25609     29300     29377     29769     29767                                                 0
     25610     29300     29420     29765     29767                                                 0
     25611     29301     29379     29753     29764                                                 0
     25612     29301     29424     29770     29764                                                 0
     25613     29375     29377     29769     29763                                                 0
     25614     29375     29379     29753     29763                                                 0
     25615     29381     29420     29765     29761                                                 0
     25616     29381     29509     29751     29761                                                 0
     25617     29441     29495     29762     29760                                                 0
     25618     29441     29665     29752     29760                                                 0
     25619     29482     29493     29756     29759                                                 0
     25620     29482     29511     29754     29759                                                 0
# ... 1580 like lines cut
#---1----|----2----|----3----|----4----|----5----|----6----|----7----|----8----|----9----|---10----|
#-  4. GEOMETRICAL SETS:
#---1----|----2----|----3----|----4----|----5----|----6----|----7----|----8----|----9----|---10----|
/PROP/SHELL/25
Thinshell
#   Ishell    Ismstr     Ish3n
        24         0         0
#                 hm                  hf                  hr                  dm                  dn
                   0                   0                   0                   0                   0
#        N   Istrain               Thick              Ashear              Ithick     Iplas
         5         0                 1.8                   0                   1         1
#---1----|----2----|----3----|----4----|----5----|----6----|----7----|----8----|----9----|---10----|
#-  5. TIME HISTORIES:
#---1----|----2----|----3----|----4----|----5----|----6----|----7----|----8----|----9----|---10----|
/TH/PART/4
All
#     var1      var2      var3      var4      var5      var6      var7      var8      var9     var10
DEF       
#     Obj1      Obj2      Obj3      Obj4      Obj5      Obj6      Obj7      Obj8      Obj9     Obj10
        26
#---1----|----2----|----3----|----4----|----5----|----6----|----7----|----8----|----9----|---10----|
#enddata
/END
#---1----|----2----|----3----|----4----|----5----|----6----|----7----|----8----|----9----|---10----|
