#RADIOSS STARTER
#--------------------------------------------------------------------------------------------------|
#- RADIOSS DECK WRITTEN BY HyperCrash
#HyperCrash 14.0 (64 bits) 
#Mon Dec 21 15:02:21 2015
#-
##========================================================================================
##
## Radioss Input Deck Generated by HyperMesh Version  : 10.0build60
## Generated using HyperMesh-Radioss Template Version : 10.0-SA1-140
## Date: 10-01-2010   Time: 01:02:40
##
##========================================================================================
##
#-
#- DATE	Mon Dec 21 15:02:21 2015
#--------------------------------------------------------------------------------------------------|
#---1----|----2----|----3----|----4----|----5----|----6----|----7----|----8----|----9----|---10----|
/BEGIN
rubber_ring                                                                     
       140         0
                   1                   1                   1
                   1                   1                   1
#---1----|----2----|----3----|----4----|----5----|----6----|----7----|----8----|----9----|---10----|
#-  1. CONTROL CARDS:
#---1----|----2----|----3----|----4----|----5----|----6----|----7----|----8----|----9----|---10----|
/TITLE

#---1----|----2----|----3----|----4----|----5----|----6----|----7----|----8----|----9----|---10----|
#-  2. MATERIALS:
#---1----|----2----|----3----|----4----|----5----|----6----|----7----|----8----|----9----|---10----|
/MAT/OGDEN/1
SIMPLE
#              RHO_I
                1E-4                   0
#                 Nu           sigma_cut           funIDbulk         Fscale_bulk         M
                .495                   0                   0                   0         0
#               Mu_1                Mu_2                Mu_3                Mu_4                Mu_5
                  .7                 -.5                   0                   0                   0
# blank card

#            alpha_1             alpha_2             alpha_3             alpha_4             alpha_5
                   2                  -2                   0                   0                   0
# blank card

#---1----|----2----|----3----|----4----|----5----|----6----|----7----|----8----|----9----|---10----|
/MAT/ELAST/2
RIGID
#              RHO_I
              7.9E-9                   0
#                  E                  nu
                 600                  .3
#---1----|----2----|----3----|----4----|----5----|----6----|----7----|----8----|----9----|---10----|
#-  3. NODES:
#---1----|----2----|----3----|----4----|----5----|----6----|----7----|----8----|----9----|---10----|
/NODE
         3               -7.75                   4     1.6999999963E-8
         4               -7.75                   4                -.67
         5               -4.75                   7                -.67
         6               -4.75                   7     1.6999999963E-8
         7               -8.75                   4                -.67
         8               -4.75                   8                -.67
         9               -4.75                   8     1.6999999963E-8
        10               -8.75                   4     1.6999999963E-8
        11               -1.75                   4                -.67
        12               -1.75                   4     1.6999999963E-8
        13                -.75                   4     1.6999999963E-8
        14                -.75                   4                -.67
        15               -4.75                   1                -.67
        16               -4.75                   1     1.6999999963E-8
        17               -4.75                   0                -.67
        18               -4.75                   0     1.6999999963E-8
        19         -7.73858404         4.261467218                -.67
        20         -7.70442319         4.520944536                -.67
        21         -7.64777756         4.776457131                -.67
        22         -7.56907797          5.02606046                -.67
# ... 1596 like lines cut
#---1----|----2----|----3----|----4----|----5----|----6----|----7----|----8----|----9----|---10----|
#-  4. BOUNDARY CONDITIONS:
#---1----|----2----|----3----|----4----|----5----|----6----|----7----|----8----|----9----|---10----|
/BCS/24
base_fixed
#  Tra rot   skew_ID  grnod_ID
   111 111         0        19
/GRNOD/NODE/19
base_RBE2
      2266
#---1----|----2----|----3----|----4----|----5----|----6----|----7----|----8----|----9----|---10----|
/BCS/25
Z_const
#  Tra rot   skew_ID  grnod_ID
   001 000         0        18
/GRNOD/NODE/18
Zconst
         3         4         5         6         7         8         9        10        11        12
        13        14        15        16        17        18        19        20        21        22
        23        24        25        26        27        28        29        30        31        32
        33        34        35        36        37        38        39        40        41        42
        43        44        45        46        47        48        49        50        51        52
        53        54        55        56        57        58        59        60        61        62
        63        64        65        66        67        68        69        70        71        72
        73        74        75        76        77        78        79        80        81        82
        83        84        85        86        87        88        89        90        91        92
        93        94        95        96        97        98        99       100       101       102
       103       104       105       106       107       108       109       110       111       112
       113       114       115       116       117       118       119       120       121       122
       123       124       125       126       127       128       129       130       131       132
       133       134       135       136       137       138       139       140       141       142
       143       144       145       146       147       148       149       150       151       152
       153       154       155       156       157       158       159       160       161       162
       163       164       165       166       167       168       169       170       171       172
       173       174       175       176       177       178       179       180       181       182
       183       184       185       186       187       188       189       190       191       192
       193       194       195       196       197       198       199       200       201       202
# ... 52 like lines cut
#---1----|----2----|----3----|----4----|----5----|----6----|----7----|----8----|----9----|---10----|
/BCS/26
X_const
#  Tra rot   skew_ID  grnod_ID
   100 000         0        21
/GRNOD/NODE/21
Xconst
         5         6         8         9        15        16        17        18        87        88
        89        93        94        95       241       242       243       244       245       246
      5476      5477      5497      5517      5537      5662      5663      5681      5699      5717
#---1----|----2----|----3----|----4----|----5----|----6----|----7----|----8----|----9----|---10----|
/BCS/27
top_fix
#  Tra rot   skew_ID  grnod_ID
   101 111         0        20
/GRNOD/NODE/20
top_RBE2
      2269
#---1----|----2----|----3----|----4----|----5----|----6----|----7----|----8----|----9----|---10----|
#-  5. PARTS:
#---1----|----2----|----3----|----4----|----5----|----6----|----7----|----8----|----9----|---10----|
/PART/10
COMP-WHEEL-WHEEL
         5         1         0
#---1----|----2----|----3----|----4----|----5----|----6----|----7----|----8----|----9----|---10----|
# BRICK elements of /PART/10/COMP-WHEEL-WHEEL:
#---1----|----2----|----3----|----4----|----5----|----6----|----7----|----8----|----9----|---10----|
/BRICK/10
      5190        92         3       247       672      5438      5439      5440      5441
      5191       315        52         3        92      5442      5443      5439      5438
      5192       316        51        52       315      5444      5445      5443      5442
      5193       317        50        51       316      5446      5447      5445      5444
      5194       318        49        50       317      5448      5449      5447      5446
      5195       319        48        49       318      5450      5451      5449      5448
      5196       320        47        48       319      5452      5453      5451      5450
      5197       321        46        47       320      5454      5455      5453      5452
      5198       322        45        46       321      5456      5457      5455      5454
      5199       323        44        45       322      5458      5459      5457      5456
      5200       324        43        44       323      5460      5461      5459      5458
      5201       325        42        43       324      5462      5463      5461      5460
      5202       326        41        42       325      5464      5465      5463      5462
      5203       327        40        41       326      5466      5467      5465      5464
      5204       328        39        40       327      5468      5469      5467      5466
      5205       329        38        39       328      5470      5471      5469      5468
      5206       330        37        38       329      5472      5473      5471      5470
      5207       331        36        37       330      5474      5475      5473      5472
      5208        87         6        36       331      5476      5477      5475      5474
      5209        91        92       672       689      5478      5438      5441      5479
# ... 556 like lines cut
#---1----|----2----|----3----|----4----|----5----|----6----|----7----|----8----|----9----|---10----|
/PART/11
COMP-TOP-BARRIER
         6         2         0
#---1----|----2----|----3----|----4----|----5----|----6----|----7----|----8----|----9----|---10----|
# SHELL elements of /PART/11/COMP-TOP-BARRIER:
#---1----|----2----|----3----|----4----|----5----|----6----|----7----|----8----|----9----|---10----|
/SHELL/11
      1696      1977      1976      1978      1980                                                 0
      1697      1969      1977      1980      1970                                                 0
      1698      1980      1978      1961      1960                                                 0
      1699      1970      1980      1960      1959                                                 0
      1700      1975      1936      1935      1979                                                 0
      1701      1976      1975      1979      1978                                                 0
      1702      1979      1935      1934      1962                                                 0
      1703      1978      1979      1962      1961                                                 0
      1704      1977      1969      1882      1881                                                 0
      1705      1976      1977      1881      1880                                                 0
      1706      1975      1976      1880      1879                                                 0
      1707      1936      1975      1879      1878                                                 0
      1708      1957      1763      1762      1974                                                 0
      1709      1958      1957      1974      1973                                                 0
      1710      1959      1958      1973      1970                                                 0
      1711      1974      1762      1761      1972                                                 0
      1712      1973      1974      1972      1971                                                 0
      1713      1970      1973      1971      1969                                                 0
      1714      1972      1761      1760      1884                                                 0
      1715      1971      1972      1884      1883                                                 0
# ... 240 like lines cut
#---1----|----2----|----3----|----4----|----5----|----6----|----7----|----8----|----9----|---10----|
/PART/12
COMP-BASE-BARRIER
         6         2         0
#---1----|----2----|----3----|----4----|----5----|----6----|----7----|----8----|----9----|---10----|
# SHELL elements of /PART/12/COMP-BASE-BARRIER:
#---1----|----2----|----3----|----4----|----5----|----6----|----7----|----8----|----9----|---10----|
/SHELL/12
      1956      2259      2258      2263      2265                                                 0
      1957      2246      2259      2265      2247                                                 0
      1958      2265      2263      2222      2221                                                 0
      1959      2247      2265      2221      2220                                                 0
      1960      2258      2257      2264      2263                                                 0
      1961      2263      2264      2223      2222                                                 0
      1962      2030      2031      2260      2262                                                 0
      1963      2029      2030      2262      2245                                                 0
      1964      2262      2260      2258      2259                                                 0
      1965      2245      2262      2259      2246                                                 0
      1966      2031      2032      2261      2260                                                 0
      1967      2260      2261      2257      2258                                                 0
      1968      2250      2249      2254      2256                                                 0
      1969      2023      2250      2256      2022                                                 0
      1970      2256      2254      2218      2217                                                 0
      1971      2022      2256      2217      2021                                                 0
      1972      2248      2246      2247      2255                                                 0
      1973      2249      2248      2255      2254                                                 0
      1974      2255      2247      2220      2219                                                 0
      1975      2254      2255      2219      2218                                                 0
# ... 190 like lines cut
#---1----|----2----|----3----|----4----|----5----|----6----|----7----|----8----|----9----|---10----|
#-  6. GEOMETRICAL SETS:
#---1----|----2----|----3----|----4----|----5----|----6----|----7----|----8----|----9----|---10----|
/PROP/SOLID/5
WHEEL
#   Isolid    Ismstr               Icpre               Inpts    Itetra    Iframe                  dn
        14        10                   1                 222         0         0                   0
#                q_a                 q_b                   h            LAMBDA_V                MU_V
                   0                   0                   0                   0                   0
#             dt_min   istrain      IHKT
                   0         0         0
#---1----|----2----|----3----|----4----|----5----|----6----|----7----|----8----|----9----|---10----|
/PROP/SHELL/6
BARRIER
#   Ishell    Ismstr     Ish3n    Idrill
         1         2         0         0
#                 hm                  hf                  hr                  dm                  dn
                   0                   0                   0                   0                   0
#        N   Istrain               Thick              Ashear              Ithick     Iplas
         3         0                 .01                   0                   0         0
#---1----|----2----|----3----|----4----|----5----|----6----|----7----|----8----|----9----|---10----|
#-  7. FUNCTIONS:
#---1----|----2----|----3----|----4----|----5----|----6----|----7----|----8----|----9----|---10----|
/FUNCT/1
dof1
#                  X                   Y
                   0                   0                                                            
                   1                   0                                                            
                   2                -2.5                                                            
#---1----|----2----|----3----|----4----|----5----|----6----|----7----|----8----|----9----|---10----|
/FUNCT/2
dof2
#                  X                   Y
                   0                   0                                                            
                   1               -6.22                                                            
                   2               -6.22                                                            
#---1----|----2----|----3----|----4----|----5----|----6----|----7----|----8----|----9----|---10----|
/FUNCT/3
dof6
#                  X                   Y
                   0                   0                                                            
                   1                   0                                                            
                   2                  -2                                                            
#---1----|----2----|----3----|----4----|----5----|----6----|----7----|----8----|----9----|---10----|
#-  8. INTERFACES:
#---1----|----2----|----3----|----4----|----5----|----6----|----7----|----8----|----9----|---10----|
/INTER/TYPE7/13
Self-contact
#  Slav_id   Mast_id      Istf      Ithe      Igap                Ibag      Idel     Icurv      Iadm
        23        28         4         0         0                   0         0         0         0
#          Fscalegap             GAP_MAX             Fpenmax
                   0                   0                   0
#              Stmin               Stmax          %mesh_size               dtmin  Irem_gap
                   0                   0                   0                   0         0
#              Stfac                Fric              Gapmin              Tstart               Tstop
                   0                   0                 .05                   0                   0
#      IBC                        Inacti                VisS                VisF              Bumult
       000                             0                   0                   0                   0
#    Ifric    Ifiltr               Xfreq     Iform   sens_ID
         0         0                   0         2         0
/GRNOD/NODE/23
inner
         3         4         5         6        11        12        15        16        19        20
        21        22        23        24        25        26        27        28        29        30
        31        32        33        34        35        36        37        38        39        40
        41        42        43        44        45        46        47        48        49        50
        51        52        87        92        95        96        99       100       101       102
       103       104       105       106       107       108       109       110       111       112
       113       114       115       116       117       118       119       120       121       122
       123       124       125       126       127       128       129       130       131       132
       169       170       173       174       175       176       177       178       179       180
       181       182       183       184       185       186       187       188       189       190
       191       192       193       194       195       196       197       198       199       200
       201       202       203       204       205       206       241       246       247       248
       249       250       251       252       253       254       255       256       257       258
       259       260       261       262       263       264       265       266       267       268
       269       270       271       272       273       274       275       276       277       278
       279       280       315       316       317       318       319       320       321       322
       323       324       325       326       327       328       329       330       331       366
       367       368       369       370       371       372       373       374       375       376
       377       378       379       380       381       382       417       418       419       420
       421       422       423       424       425       426       427       428       429       430
# ... 24 like lines cut
/SURF/SEG/28
rubber_inner
         1        52         3      5439      5443
         2         3       247      5440      5439
         3      5443      5439         4        19
         4      5439      5440       280         4
         5      5477      5475        35         5
         6      5572      5477         5       116
         7         6        36      5475      5477
         8       115         6      5477      5572
         9      5539      5540       132        11
        10      5629      5539        11       173
        11        12        99      5540      5539
        12       206        12      5539      5629
        13      5663      5661       189        15
        14      5749      5663        15       264
        15        16       190      5661      5663
        16       263        16      5663      5749
        17      5445      5443        19        20
        18      5447      5445        20        21
        19      5449      5447        21        22
        20      5451      5449        22        23
# ... 124 like lines cut
#---1----|----2----|----3----|----4----|----5----|----6----|----7----|----8----|----9----|---10----|
/INTER/TYPE7/14
TOP_Rubber
#  Slav_id   Mast_id      Istf      Ithe      Igap                Ibag      Idel     Icurv      Iadm
        25        30         4         0         0                   0         0         0         0
#          Fscalegap             GAP_MAX             Fpenmax
                   0                   0                   0
#              Stmin               Stmax          %mesh_size               dtmin  Irem_gap
                   0                   0                   0                   0         0
#              Stfac                Fric              Gapmin              Tstart               Tstop
                   0                  .5                .055                   0                   0
#      IBC                        Inacti                VisS                VisF              Bumult
       000                             0                   0                   0                   0
#    Ifric    Ifiltr               Xfreq     Iform   sens_ID
         0         0                   0         2         0
/GRNOD/NODE/25
outer_top
         8         9        53        54        55        56        57        58        59        60
        61        62        63        64        65        66        67        68        69        70
        71        72        73        74        75        76        77        78        79        80
        81        82        83        84        85        86        89        93       133       134
       135       136       137       138       139       140       141       142       143       144
       145       146       147       148       149       150       151       152       153       154
       155       156       157       158       159       160       161       162       163       164
       165       166       349       350       351       352       353       354       355       356
       357       358       359       360       361       362       363       364       365       400
       401       402       403       404       405       406       407       408       409       410
       411       412       413       414       415       416       451       452       453       454
       455       456       457       458       459       460       461       462       463       464
       465       466       467       502       503       504       505       506       507       508
       509       510       511       512       513       514       515       516       517       518
      5500      5501      5502      5503      5504      5505      5506      5507      5508      5509
      5510      5511      5512      5513      5514      5515      5516      5517      5520      5521
      5522      5523      5524      5525      5526      5527      5528      5529      5530      5531
      5532      5533      5534      5535      5536      5537      5592      5594      5595      5596
      5597      5598      5599      5600      5601      5602      5603      5604      5605      5606
      5607      5608      5609      5611      5612      5613      5614      5615      5616      5617
      5618      5619      5620      5621      5622      5623      5624      5625      5626      5627
/SURF/SEG/30
top_rigid
       145      1695      1696      1945      1721
       146      1720      1695      1721      1857
       147      1696      1697      1946      1945
       148      1697      1698      1942      1946
       149      1698      1699      1943      1942
       150      1699      1700      1944      1943
       151      1700      1701      1933      1944
       152      1701      1702      1968      1933
       153      1702      1703      1966      1968
       154      1703      1704      1967      1966
       155      1704      1705      1963      1967
       156      1705      1706      1964      1963
       157      1706      1707      1965      1964
       158      1707      1708      1764      1965
       159      1708      1709      1837      1764
       160      1709      1710      1838      1837
       161      1710      1711      1834      1838
       162      1711      1712      1835      1834
       163      1712      1713      1836      1835
       164      1713      1714      1825      1836
# ... 240 like lines cut
#---1----|----2----|----3----|----4----|----5----|----6----|----7----|----8----|----9----|---10----|
/INTER/TYPE7/15
BOTTOM_Rubber
#  Slav_id   Mast_id      Istf      Ithe      Igap                Ibag      Idel     Icurv      Iadm
        24        29         4         0         0                   0         0         0         0
#          Fscalegap             GAP_MAX             Fpenmax
                   0                   0                   0
#              Stmin               Stmax          %mesh_size               dtmin  Irem_gap
                   0                   0                   0                   0         0
#              Stfac                Fric              Gapmin              Tstart               Tstop
                   0                  .5                .055                   0                   0
#      IBC                        Inacti                VisS                VisF              Bumult
       000                             0                   0                   0                   0
#    Ifric    Ifiltr               Xfreq     Iform   sens_ID
         0         0                   0         2         0
/GRNOD/NODE/24
outer_bot
         7        10        13        14        17        18        90        98       167       172
       207       208       209       210       211       212       213       214       215       216
       217       218       219       220       221       222       223       224       225       226
       227       228       229       230       231       232       233       234       235       236
       237       238       239       240       243       244       281       282       283       284
       285       286       287       288       289       290       291       292       293       294
       295       296       297       298       299       300       301       302       303       304
       305       306       307       308       309       310       311       312       313       314
       553       554       555       556       557       558       559       560       561       562
       563       564       565       566       567       568       569       604       605       606
       607       608       609       610       611       612       613       614       615       616
       617       618       619       620       655       656       657       658       659       660
       661       662       663       664       665       666       667       668       669       670
       671       706       707       708       709       710       711       712       713       714
       715       716       717       718       719       720       721       722      5498      5499
      5518      5519      5593      5610      5682      5683      5684      5685      5686      5687
      5688      5689      5690      5691      5692      5693      5694      5695      5696      5697
      5698      5699      5700      5701      5702      5703      5704      5705      5706      5707
      5708      5709      5710      5711      5712      5713      5714      5715      5716      5717
      5752      5767      5768      5769      5770      5771      5772      5773      5774      5775
      5776      5777      5778      5779      5780      5781      5782      5783      5784      5785
      5786      5787      5788      5789      5790      5791      5792      5793      5794      5795
      5796      5797
/SURF/SEG/29
base_rigid
       405      2116      2117      1988      1989
       406      2118      2116      1989      1990
       407      2082      2118      1990      1991
       408      2099      2082      1991      1992
       409      2098      2099      1992      1993
       410      2100      2098      1993      1994
       411      1996      2100      1994      1995
       412      1997      2094      2100      1996
       413      1998      2097      2094      1997
       414      1999      2085      2097      1998
       415      2000      2090      2085      1999
       416      2001      2091      2090      2000
       417      2002      2070      2091      2001
       418      2003      2137      2070      2002
       419      2004      2131      2137      2003
       420      2005      2134      2131      2004
       421      2006      2119      2134      2005
       422      2007      2158      2119      2006
       423      2008      2152      2158      2007
       424      2009      2155      2152      2008
# ... 190 like lines cut
#---1----|----2----|----3----|----4----|----5----|----6----|----7----|----8----|----9----|---10----|
#-  9. RIGID BODIES:
#---1----|----2----|----3----|----4----|----5----|----6----|----7----|----8----|----9----|---10----|
/RBODY/1694
NULL
#     RBID     ISENS     NSKEW    ISPHER                MASS   Gnod_id     IKREM      ICOG   Surf_id
      2266         0         0         0                   0        26         0         1         0
#                Jxx                 Jyy                 Jzz
                   0                   0                   0
#                Jxy                 Jyz                 Jxz
                   0                   0                   0
#Ioptoff
         0
/GRNOD/NODE/26
HM_RBE2_1694
      1988      1989      1990      1991      1992      1993      1994      1995      1996      1997
      1998      1999      2000      2001      2002      2003      2004      2005      2006      2007
      2008      2009      2010      2011      2012      2013      2014      2015      2016      2017
      2018      2019      2020      2021      2022      2023      2024      2025      2026      2027
      2028      2029      2030      2031      2032      2063      2064      2065      2066      2067
      2068      2069      2070      2071      2072      2073      2074      2075      2076      2077
      2078      2079      2080      2081      2082      2083      2084      2085      2086      2087
      2088      2089      2090      2091      2092      2093      2094      2095      2096      2097
      2098      2099      2100      2101      2102      2103      2104      2105      2106      2107
      2108      2109      2110      2111      2112      2113      2114      2115      2116      2117
      2118      2119      2120      2121      2122      2123      2124      2125      2126      2127
      2128      2129      2130      2131      2132      2133      2134      2135      2136      2137
      2138      2139      2140      2141      2142      2143      2144      2145      2146      2147
      2148      2149      2150      2151      2152      2153      2154      2155      2156      2157
      2158      2159      2160      2161      2162      2163      2164      2165      2166      2167
      2168      2169      2170      2171      2172      2173      2174      2175      2176      2177
      2178      2179      2180      2181      2182      2183      2184      2185      2186      2187
      2188      2189      2190      2191      2192      2193      2194      2195      2196      2197
      2198      2199      2200      2201      2202      2203      2204      2205      2206      2207
      2208      2209      2210      2211      2212      2213      2214      2215      2216      2217
# ... 5 like lines cut
#---1----|----2----|----3----|----4----|----5----|----6----|----7----|----8----|----9----|---10----|
/RBODY/1695
NULL
#     RBID     ISENS     NSKEW    ISPHER                MASS   Gnod_id     IKREM      ICOG   Surf_id
      2269         0         0         0                   0        27         0         1         0
#                Jxx                 Jyy                 Jzz
                   0                   0                   0
#                Jxy                 Jyz                 Jxz
                   0                   0                   0
#Ioptoff
         0
/GRNOD/NODE/27
HM_RBE2_1695
      1695      1696      1697      1698      1699      1700      1701      1702      1703      1704
      1705      1706      1707      1708      1709      1710      1711      1712      1713      1714
      1715      1716      1717      1718      1719      1720      1721      1722      1723      1724
      1725      1726      1727      1728      1729      1730      1731      1732      1733      1734
      1735      1736      1737      1738      1739      1740      1741      1742      1743      1744
      1745      1746      1747      1748      1749      1750      1751      1752      1753      1754
      1755      1756      1757      1758      1759      1760      1761      1762      1763      1764
      1765      1766      1767      1768      1769      1770      1771      1772      1773      1774
      1775      1776      1777      1778      1779      1780      1781      1782      1783      1784
      1785      1786      1787      1788      1789      1790      1791      1792      1793      1794
      1795      1796      1797      1798      1799      1800      1801      1802      1803      1804
      1805      1806      1807      1808      1809      1810      1811      1812      1813      1814
      1815      1816      1817      1818      1819      1820      1821      1822      1823      1824
      1825      1826      1827      1828      1829      1830      1831      1832      1833      1834
      1835      1836      1837      1838      1839      1840      1841      1842      1843      1844
      1845      1846      1847      1848      1849      1850      1851      1852      1853      1854
      1855      1856      1857      1858      1859      1860      1861      1862      1863      1864
      1865      1866      1867      1868      1869      1870      1871      1872      1873      1874
      1875      1876      1877      1878      1879      1880      1881      1882      1883      1884
      1885      1886      1887      1888      1889      1890      1891      1892      1893      1894
# ... 9 like lines cut
#---1----|----2----|----3----|----4----|----5----|----6----|----7----|----8----|----9----|---10----|
#- 10. IMPOSED DISPLACEMENTS:
#---1----|----2----|----3----|----4----|----5----|----6----|----7----|----8----|----9----|---10----|
/IMPDISP/28
impdisp_dof1
#   Ifunct       DIR     Iskew   Isensor   Gnod_id     Frame     Icoor
         1         X         0         0        20         0         0
#            Scale_x             Scale_y              Tstart               Tstop
                   1                   1                   0                   0
#---1----|----2----|----3----|----4----|----5----|----6----|----7----|----8----|----9----|---10----|
/IMPDISP/29
impdisp_dof2
#   Ifunct       DIR     Iskew   Isensor   Gnod_id     Frame     Icoor
         2         Y         0         0        20         0         0
#            Scale_x             Scale_y              Tstart               Tstop
                   1                   1                   0                   0
#---1----|----2----|----3----|----4----|----5----|----6----|----7----|----8----|----9----|---10----|
/IMPDISP/30
impdisp_dof6
#   Ifunct       DIR     Iskew   Isensor   Gnod_id     Frame     Icoor
         3        ZZ         0         0        20         0         0
#            Scale_x             Scale_y              Tstart               Tstop
                   1                   1                   0                   0
#---1----|----2----|----3----|----4----|----5----|----6----|----7----|----8----|----9----|---10----|
#- 11. SOLID GROUPS:
#---1----|----2----|----3----|----4----|----5----|----6----|----7----|----8----|----9----|---10----|
/GRBRIC/BRIC/22
INSIDE_ELEM
      5190      5191      5192      5193      5194      5195      5196      5197      5198      5199
      5200      5201      5202      5203      5204      5205      5206      5207      5208      5266
      5267      5268      5269      5270      5271      5272      5273      5274      5275      5276
      5277      5278      5279      5280      5281      5282      5284      5338      5339      5340
      5341      5342      5343      5344      5345      5346      5347      5348      5349      5350
      5351      5352      5353      5354      5355      5411      5412      5413      5414      5415
      5416      5417      5418      5419      5420      5421      5422      5423      5424      5425
      5426      5428      5478      5479      5480      5481      5482      5483      5484      5485
      5486      5487      5488      5489      5490      5491      5492      5493      5494      5495
      5496      5554      5555      5556      5557      5558      5559      5560      5561      5562
      5563      5564      5565      5566      5567      5568      5569      5570      5572      5626
      5627      5628      5629      5630      5631      5632      5633      5634      5635      5636
      5637      5638      5639      5640      5641      5642      5643      5699      5700      5701
      5702      5703      5704      5705      5706      5707      5708      5709      5710      5711
      5712      5713      5714      5716
#---1----|----2----|----3----|----4----|----5----|----6----|----7----|----8----|----9----|---10----|
/END
#---1----|----2----|----3----|----4----|----5----|----6----|----7----|----8----|----9----|---10----|
