#RADIOSS STARTER
#--------------------------------------------------------------------------------------------------|
#- RADIOSS DECK WRITTEN BY HyperCrash
#HyperCrash 14.0 (64 bits) 
#Mon Dec 21 15:02:23 2015
#-
#--------------------------------------------------------------------------------------------------|
#- RADIOSS DECK WRITTEN BY HyperCrash
#HyperCrash 10.0 SA1 (64 bits)
#Mon Jul 26 13:03:49 2010
#-
##========================================================================================
##
## Radioss Input Deck Generated by HyperMesh Version  : 8.0SR1
##
##========================================================================================
#
#-
#- DATE	Mon Jul 26 13:03:49 2010
#--------------------------------------------------------------------------------------------------|
#---1----|----2----|----3----|----4----|----5----|----6----|----7----|----8----|----9----|---10----|
#-
#- DATE	Mon Dec 21 15:02:23 2015
#--------------------------------------------------------------------------------------------------|
#---1----|----2----|----3----|----4----|----5----|----6----|----7----|----8----|----9----|---10----|
/BEGIN
VALVE                                                                           
       140         0
                  kg                   m                   s
                  kg                   m                   s
#---1----|----2----|----3----|----4----|----5----|----6----|----7----|----8----|----9----|---10----|
#-  1. CONTROL CARDS:
#---1----|----2----|----3----|----4----|----5----|----6----|----7----|----8----|----9----|---10----|
/TITLE
Simplified HEART model with law 11
#---1----|----2----|----3----|----4----|----5----|----6----|----7----|----8----|----9----|---10----|
/ALE/GRID/SPRING
#       Typical-time       Non-lin fact.        Damping coef        Shear factor
                1E-5                  .5                  .5                   1
#        ALE-min-vol
                   0
#---1----|----2----|----3----|----4----|----5----|----6----|----7----|----8----|----9----|---10----|
/ANALY
#    N2D3D             IPARITH      ISUB
         0                   0         0
#---1----|----2----|----3----|----4----|----5----|----6----|----7----|----8----|----9----|---10----|
/CAA
#---1----|----2----|----3----|----4----|----5----|----6----|----7----|----8----|----9----|---10----|
/DEF_SHELL
#   ISHELL    ISMSTR    ITHICK     IPLAS   ISTRAIN                        I_SH3N     IDRIL
         0         0         0         0         0                             0         0
#---1----|----2----|----3----|----4----|----5----|----6----|----7----|----8----|----9----|---10----|
/DEF_SOLID
#  I_SOLID    ISMSTR             ISTRAIN                                  IFRAME
         0         0                   0                                       0
#---1----|----2----|----3----|----4----|----5----|----6----|----7----|----8----|----9----|---10----|
/IOFLAG
#     IPRI               IGTYP     IOUTP    IOUTYY   IROOTYY     IDROT
         5                   0         0         0         0         0
#---1----|----2----|----3----|----4----|----5----|----6----|----7----|----8----|----9----|---10----|
/SPMD
#   DOMDEC     Nproc              Dkword             Nthread
         0         0                   0                   1
#---1----|----2----|----3----|----4----|----5----|----6----|----7----|----8----|----9----|---10----|
#-  2. MATERIALS:
#---1----|----2----|----3----|----4----|----5----|----6----|----7----|----8----|----9----|---10----|
/MAT/ELAST/1
FLAP
#              RHO_I
                7800                   0
#                  E                  nu
        210000000000                  .3
#---1----|----2----|----3----|----4----|----5----|----6----|----7----|----8----|----9----|---10----|
/MAT/LAW46/2
BLOOLIKE
#              RHO_I              RHO_0
                 960                   0
#                 c                  Nu
                  50             5.45E-5
#     Isgs                 C_s                Csp
         0                  .1                  .1
/ALE/MAT/2
#     Modif. factor.
                   0
#---1----|----2----|----3----|----4----|----5----|----6----|----7----|----8----|----9----|---10----|
/MAT/BOUND/3
INLET
#              RHO_I               RHO_0
                 960                   0
#     Ityp                          P_sh            Fscale_T
         2                             0                   0
#                                      c
                                      50
#fun_IDRHO
         1
#funct_IDp                     Fscale_p0
         2                             0
#funct_IDE                      Fscale_E
         1                             0
# Blank card

# Blank card

# func_IDT  func_IDQ
         0         0
/ALE/MAT/3
#     Modif. factor.
                   0
#---1----|----2----|----3----|----4----|----5----|----6----|----7----|----8----|----9----|---10----|
/MAT/BOUND/4
OUTLET
#              RHO_I               RHO_0
                 960                   0
#     Ityp                          P_sh            Fscale_T
         3                             0                   0
# node_IDV                             c                 I_c
         0                            50                .001
#fun_IDRHO
         1
#funct_IDp                     Fscale_p0
         1                             0
#funct_IDE                      Fscale_E
         1                             0
# Blank card

# Blank card

#funct_IDT funct_IDQ
         0         0
/ALE/MAT/4
#     Modif. factor.
                   0
#---1----|----2----|----3----|----4----|----5----|----6----|----7----|----8----|----9----|---10----|
#-  3. NODES:
#---1----|----2----|----3----|----4----|----5----|----6----|----7----|----8----|----9----|---10----|
/NODE
        24                  .1                .033                   0
        25              .10125             .032846                   0
        26               .1025             .032692                   0
        27              .10375             .032538                   0
        28                .105             .032385                   0
        29              .10625             .032231                   0
        30               .1075             .032077                   0
        31              .10875             .031923                   0
        32                 .11             .031769                   0
        33              .11125             .031615                   0
        34               .1125             .031462                   0
        35              .11375             .031308                   0
        36                .115             .031154                   0
        37              .11625                .031                   0
        38               .1175             .030846                   0
        39              .11875             .030692                   0
        40                 .12             .030538                   0
        41              .12125             .030385                   0
        42               .1225             .030231                   0
        43              .12375             .030077                   0
# ... 14126 like lines cut
#---1----|----2----|----3----|----4----|----5----|----6----|----7----|----8----|----9----|---10----|
#-  4. BOUNDARY CONDITIONS:
#---1----|----2----|----3----|----4----|----5----|----6----|----7----|----8----|----9----|---10----|
/BCS/1
IN_OUT_BCS
#  Tra rot   skew_ID  grnod_ID
   011 111         0         2
/GRNOD/NODE/2
IN_OUT_BC
       676       677       678       679       680       681       682       683       684      2907
      2908      2909      2910      2911      2912      2913      2914      2915      2916      2917
      2918      2919      2920      2921      3933      3934      3935      3936      3937      3938
      3939      3940      3941      3942      3943      4745      4746      4747      4748      4749
      4750      4751      4752      4753      4754      4755      4756      4757      7451      7452
      7453      7454      7455      7456      7457      7458      7459      7460      7461      7462
      7463      7464      7465     17387     17388     17389     17392     17398     17411     17412
     17416     17419     19618     19619     19620     19627     19628     19635     19636     19643
     19681     19682     19690     19691     19698     19699     19703     19902     19903     19904
     19905     19906     19907     19918     19919     19920     19921     19922     20776     20777
     20778     20787     20788     20789     20790     20797     20798     20799     20809     20810
     20811     21964     21965     21966     21971     21972     21988     21991     21994     22059
     22060     22063     22065     22071     22073     22075
#---1----|----2----|----3----|----4----|----5----|----6----|----7----|----8----|----9----|---10----|
/BCS/2
WALL_BCS
#  Tra rot   skew_ID  grnod_ID
   111 111         0         3
/GRNOD/NODE/3
WALL_BC
        24        25        26        27        28        29        30        31        32        33
        34        35        36        37        38        39        40        41        42        43
        44        45        46        47        48        49        50        51        52        53
        54        55        56        57        58        59        60        61        62        63
        64        65        66        67        68        69        70        71        72        73
        74        75        76       138       607       617       618       619       620       621
       622       623       624       625       626       627       628       629       630       631
       632       633       634       635       636       637       638       639       640       641
       642       643       644       645       646       647       648       649       650       651
       652       653       654       655       656       657       658       659       660       661
       662       663       664       665       666       667       668       669       670       671
       672       673       674       675       685       686       687       688       689       690
       691       692       693       694       695       696       697       698       699       700
       701       702       703       704       705       706       707       708       709       710
       711       712       713       714       715       716       717       718       719       720
       721       722       723       724       725       726       727       728       729       730
       731       732       733       734       735       736       737       738       739       740
       741       742      1256      1257      1258      1259      1260      1261      1262      1263
      1264      1265      1266      1267      1268      1269      1270      1271      1272      1273
      1274      1275      1276      1288      1289      1290      1291      1292      1293      1294
# ... 100 like lines cut
#---1----|----2----|----3----|----4----|----5----|----6----|----7----|----8----|----9----|---10----|
/BCS/4
UPPER_BCS
#  Tra rot   skew_ID  grnod_ID
   001 000         0         6
/GRNOD/NODE/6
UPPER_BC
        77        78        79        80        81        82        83        84        85        86
        87       139       140       141       142       143       144       145       146       147
       148       149       150       151       152       153       154       155       156       157
       158       159       160       161       162       163       164       165       166       167
       168       169       170       171       172       173       174       175       176       177
       178       179       180       181       182       183       184       185       186       187
       188       189       190       191       192       193       194       195       196       197
       198       199       200       201       202       203       204       205       206       207
       208       209       210       211       212       213       214       215       216       217
       218       219       220       221       222       223       224       225       226       227
       228       229       230       231       232       233       234       235       236       237
       238       239       240       241       242       243       244       245       246       247
       248       249       250       251       252       253       254       255       256       257
       258       259       260       261       262       263       264       265       266       267
       268       269       270       271       272       273       274       275       276       277
       278       279       280       281       282       283       284       285       286       287
       288       289       290       291       292       293       294       295       296       297
       298       299       300       301       302       303       304       305       306       307
       308       309       310       311       312       313       314       315       316       317
       318       319       320       321       322       323       324       325       326       327
# ... 1237 like lines cut
#---1----|----2----|----3----|----4----|----5----|----6----|----7----|----8----|----9----|---10----|
/BCS/5
UPPER_BCS_ALE
#  Tra rot   skew_ID  grnod_ID
   000 000         0         6
#---1----|----2----|----3----|----4----|----5----|----6----|----7----|----8----|----9----|---10----|
/ALE/BCS/5
UPPER_BCS_ALE
#   trarot   Skew_id   Gnod_id
   001 000         0         6
#---1----|----2----|----3----|----4----|----5----|----6----|----7----|----8----|----9----|---10----|
/BCS/6
FLUID_LAG_BCS
#  Tra rot   skew_ID  grnod_ID
   001 000         0         4
/GRNOD/NODE/4
FLUID_LAG
        88        89        90        91        92        93        94        95        96        97
        98        99       100       101       102       103       104       105       106       107
       108       109       110       111       112       113       114       115       116       117
       118       119       120       121       122       123       124       125       126       127
       128       129       130       131       132       133       134       135       136       137
     16203     16204     16247     16248     16254     16280     16281     16285     16312     16313
     16318     16324     16357     16358     16362     16390     16391     16395     16423     16424
     16428     16455     16456     16461     16467     16502     16503     16508     16509     16520
     16523     16568     16569     16574     16575     16588     16589     16596     16645     16646
     16651     16652     16663     16666     16711     16712     16718     16732     16733     16738
#---1----|----2----|----3----|----4----|----5----|----6----|----7----|----8----|----9----|---10----|
/BCS/7
FLUID_LAG_BCS_ALE
#  Tra rot   skew_ID  grnod_ID
   000 000         0         4
#---1----|----2----|----3----|----4----|----5----|----6----|----7----|----8----|----9----|---10----|
/ALE/BCS/7
FLUID_LAG_BCS_ALE
#   trarot   Skew_id   Gnod_id
   000 111         0         4
#---1----|----2----|----3----|----4----|----5----|----6----|----7----|----8----|----9----|---10----|
/BCS/8
SHELL_BCS
#  Tra rot   skew_ID  grnod_ID
   001 110         0         7
/GRNOD/NODE/7
SHELL_BC
     23360     23361     23362     23363     23364     23365     23366     23367     23368     23369
     23370     23371     23372     23375     23376     23377     23378     23379     23380     23381
     23382     23383     23384     23385
#---1----|----2----|----3----|----4----|----5----|----6----|----7----|----8----|----9----|---10----|
/BCS/9
WALL_BCS_ALE
#  Tra rot   skew_ID  grnod_ID
   000 000         0         3
#---1----|----2----|----3----|----4----|----5----|----6----|----7----|----8----|----9----|---10----|
/ALE/BCS/9
WALL_BCS_ALE
#   trarot   Skew_id   Gnod_id
   111 111         0         3
#---1----|----2----|----3----|----4----|----5----|----6----|----7----|----8----|----9----|---10----|
/BCS/12
SHELL_BCS_ALE
#  Tra rot   skew_ID  grnod_ID
   000 000         0         7
#---1----|----2----|----3----|----4----|----5----|----6----|----7----|----8----|----9----|---10----|
/ALE/BCS/12
SHELL_BCS_ALE
#   trarot   Skew_id   Gnod_id
   000 111         0         7
#---1----|----2----|----3----|----4----|----5----|----6----|----7----|----8----|----9----|---10----|
#-  5. PARTS:
#---1----|----2----|----3----|----4----|----5----|----6----|----7----|----8----|----9----|---10----|
/PART/1
FLAP
         1         1         0
#---1----|----2----|----3----|----4----|----5----|----6----|----7----|----8----|----9----|---10----|
# SHELL elements of /PART/1/FLAP:
#---1----|----2----|----3----|----4----|----5----|----6----|----7----|----8----|----9----|---10----|
/SHELL/1
      6783     23360     23361     23362     23385                                                 0
      6784     23385     23362     23363     23384                                                 0
      6785     23384     23363     23364     23383                                                 0
      6786     23383     23364     23365     23382                                                 0
      6787     23382     23365     23366     23381                                                 0
      6788     23381     23366     23367     23380                                                 0
      6789     23380     23367     23368     23379                                                 0
      6790     23379     23368     23369     23378                                                 0
      6791     23378     23369     23370     23377                                                 0
      6792     23377     23370     23371     23376                                                 0
      6793     23376     23371     23372     23375                                                 0
      6794     23375     23372     30001     30000                                                 0
#---1----|----2----|----3----|----4----|----5----|----6----|----7----|----8----|----9----|---10----|
/PART/3
BLOODLIKE1
         2         2         0
#---1----|----2----|----3----|----4----|----5----|----6----|----7----|----8----|----9----|---10----|
# BRICK elements of /PART/3/BLOODLIKE1:
#---1----|----2----|----3----|----4----|----5----|----6----|----7----|----8----|----9----|---10----|
/BRICK/3
        37       184       179       178       186     16193     16194     16195     16196
        38       186       178       177       187     16196     16195     16197     16198
        39       187       177       176       188     16198     16197     16199     16200
        40       188       176       175       189     16200     16199     16201     16202
        41       189       175        89        88     16202     16201     16203     16204
        52        74        73       183       194     16217     16218     16219     16220
        53       194       183       182       195     16220     16219     16221     16222
        54       195       182       181       196     16222     16221     16223     16224
        55       196       181       180       197     16224     16223     16225     16226
        56       197       180       179       184     16226     16225     16194     16193
        67       202       170       169       204     16237     16238     16239     16240
        68       204       169       168       205     16240     16239     16241     16242
        69       205       168       167       206     16242     16241     16243     16244
        70       206       167       166       207     16244     16243     16245     16246
        71       207       166        92        91     16246     16245     16247     16248
        72       203       202       204       208     16249     16237     16240     16250
        73       208       204       205       209     16250     16240     16242     16251
        74       209       205       206       210     16251     16242     16244     16252
        75       210       206       207       211     16252     16244     16246     16253
        76       211       207        91        90     16253     16246     16248     16254
# ... 480 like lines cut
#---1----|----2----|----3----|----4----|----5----|----6----|----7----|----8----|----9----|---10----|
/PART/4
BLOODLIKE2
         2         2         0
#---1----|----2----|----3----|----4----|----5----|----6----|----7----|----8----|----9----|---10----|
# BRICK elements of /PART/4/BLOODLIKE2:
#---1----|----2----|----3----|----4----|----5----|----6----|----7----|----8----|----9----|---10----|
/BRICK/4
       557       190        83        82       191     16205     16206     16207     16208
       558       191        82        81       185     16208     16207     16209     16210
       559       187       190       191       186     16198     16205     16208     16196
       560       186       191       185       184     16196     16208     16210     16193
       561        87        86        85       192     16211     16212     16213     16214
       562       192        85        84       193     16214     16213     16215     16216
       563       193        84        83       190     16216     16215     16206     16205
       564        88        87       192       189     16204     16211     16214     16202
       565       189       192       193       188     16202     16214     16216     16200
       566       188       193       190       187     16200     16216     16205     16198
       567        75        74       194       198     16227     16217     16220     16228
       568       198       194       195       199     16228     16220     16222     16229
       569       199       195       196       200     16229     16222     16224     16230
       570       200       196       197       201     16230     16224     16226     16231
       571       201       197       184       185     16231     16226     16193     16210
       572        76        75       198        77     16232     16227     16228     16233
       573        77       198       199        78     16233     16228     16229     16234
       574        78       199       200        79     16234     16229     16230     16235
       575        79       200       201        80     16235     16230     16231     16236
       576        80       201       185        81     16236     16231     16210     16209
# ... 6140 like lines cut
#---1----|----2----|----3----|----4----|----5----|----6----|----7----|----8----|----9----|---10----|
/PART/5
INLET_LOWER
         2         3         0
#---1----|----2----|----3----|----4----|----5----|----6----|----7----|----8----|----9----|---10----|
# BRICK elements of /PART/5/INLET_LOWER:
#---1----|----2----|----3----|----4----|----5----|----6----|----7----|----8----|----9----|---10----|
/BRICK/5
      6717      2906      2907     16070     16069     19644     19643     23184     23185
      6718      2907      2908     16071     16070     19643     19636     23186     23184
      6719      2908      2909     16072     16071     19636     19635     23187     23186
      6720      2909      2910     16073     16072     19635     19628     23188     23187
      6721      2910      2911     16074     16073     19628     19627     23189     23188
      6722      2911      2912     16075     16074     19627     19619     23190     23189
      6723      2912      2913     16076     16075     19619     19618     23191     23190
      6724      2913      2914     16077     16076     19618     19620     23192     23191
      6725      2914      2915     16078     16077     19620     19703     23193     23192
      6726      2915      2916     16079     16078     19703     19699     23194     23193
      6727      2916      2917     16080     16079     19699     19698     23195     23194
      6728      2917      2918     16081     16080     19698     19691     23196     23195
      6729      2918      2919     16082     16081     19691     19690     23197     23196
      6730      2919      2920     16083     16082     19690     19682     23198     23197
      6731      2920      2921     16084     16083     19682     19681     23199     23198
      6732      2921      2790     16085     16084     19681     19683     23200     23199
#---1----|----2----|----3----|----4----|----5----|----6----|----7----|----8----|----9----|---10----|
/PART/6
INLET_UPPER
         2         3         0
#---1----|----2----|----3----|----4----|----5----|----6----|----7----|----8----|----9----|---10----|
# BRICK elements of /PART/6/INLET_UPPER:
#---1----|----2----|----3----|----4----|----5----|----6----|----7----|----8----|----9----|---10----|
/BRICK/6
      6733       675       676     16104     16103     17397     17398     23201     23202
      6734       676       677     16105     16104     17398     17392     23203     23201
      6735       677       678     16106     16105     17392     17387     23204     23203
      6736       678       679     16107     16106     17387     17388     23205     23204
      6737       679       680     16108     16107     17388     17389     23206     23205
      6738       680       681     16109     16108     17389     17419     23207     23206
      6739       681       682     16110     16109     17419     17416     23208     23207
      6740       682       683     16111     16110     17416     17411     23209     23208
      6741       683       684     16112     16111     17411     17412     23210     23209
      6742       684       685     16113     16112     17412     17413     23211     23210
#---1----|----2----|----3----|----4----|----5----|----6----|----7----|----8----|----9----|---10----|
/PART/7
OUTLET
         2         4         0
#---1----|----2----|----3----|----4----|----5----|----6----|----7----|----8----|----9----|---10----|
# BRICK elements of /PART/7/OUTLET:
#---1----|----2----|----3----|----4----|----5----|----6----|----7----|----8----|----9----|---10----|
/BRICK/7
      6743      3943     16134     16133      3942     19907     23212     23213     19906
      6744      3942     16133     16132      3941     19906     23213     23214     19905
      6745      3941     16132     16131      3940     19905     23214     23215     19904
      6746      3940     16131     16130      3939     19904     23215     23216     19902
      6747      3939     16130     16129      3938     19902     23216     23217     19903
      6748      3938     16129     16128      3937     19903     23217     23218     19922
      6749      3937     16128     16127      3936     19922     23218     23219     19921
      6750      3936     16127     16126      3935     19921     23219     23220     19920
      6751      3935     16126     16125      3934     19920     23220     23221     19918
      6752      3934     16125     16124      3933     19918     23221     23222     19919
      6753     16161      4744      4745     16162     23223     20808     20809     23224
      6754     16162      4745      4746     16163     23224     20809     20810     23225
      6755     16163      4746      4747     16164     23225     20810     20811     23226
      6756     16164      4747      4748     16165     23226     20811     20797     23227
      6757     16165      4748      4749     16166     23227     20797     20798     23228
      6758     16166      4749      4750     16167     23228     20798     20799     23229
      6759     16167      4750      4751     16168     23229     20799     20787     23230
      6760     16168      4751      4752     16169     23230     20787     20788     23231
      6761     16169      4752      4753     16170     23231     20788     20789     23232
      6762     16170      4753      4754     16171     23232     20789     20790     23233
# ... 20 like lines cut
#---1----|----2----|----3----|----4----|----5----|----6----|----7----|----8----|----9----|---10----|
/PART/8
SPRING
         3         0         0
#---1----|----2----|----3----|----4----|----5----|----6----|----7----|----8----|----9----|---10----|
# SPRING elements of /PART/8/SPRING:
#---1----|----2----|----3----|----4----|----5----|----6----|----7----|----8----|----9----|---10----|
/SPRING/8
        13     30000     23360                                        
        14     30000     23361                                        
        15     30000     23362                                        
        16     30000     23363                                        
        17     30000     23364                                        
        18     30000     23365                                        
        19     30000     23366                                        
        20     30000     23367                                        
        21     30000     23368                                        
        22     30000     23369                                        
        23     30000     23370                                        
        24     30000     23371                                        
        25     30000     23372                                        
        26     30000     23375                                        
        27     30000     23376                                        
        28     30000     23377                                        
        29     30000     23378                                        
        30     30000     23379                                        
        31     30000     23380                                        
        32     30000     23381                                        
# ... 4 like lines cut
#---1----|----2----|----3----|----4----|----5----|----6----|----7----|----8----|----9----|---10----|
#-  6. GEOMETRICAL SETS:
#---1----|----2----|----3----|----4----|----5----|----6----|----7----|----8----|----9----|---10----|
/PROP/SHELL/1
FLAP
#   Ishell    Ismstr     Ish3n    Idrill
        12         0         0         0
#                 hm                  hf                  hr                  dm                  dn
                 .01                 .01                 .01                   0                   0
#        N   Istrain               Thick              Ashear              Ithick     Iplas
         0         0                2E-4                   0                   0         0
#---1----|----2----|----3----|----4----|----5----|----6----|----7----|----8----|----9----|---10----|
/PROP/FLUID/2
FLUID
# blank card

#                q_a                 q_b                   h
               1E-20               1E-20                  .1
#---1----|----2----|----3----|----4----|----5----|----6----|----7----|----8----|----9----|---10----|
/PROP/SPR_GENE/3
SPRING
#               Mass             Inertia     Iskew   Isensor    Isflag     Ifail              Iequil
                .001                   0         0         0         0         0                   0
#                  K                   C                   A                   B                   D
                   0                   0                   0                   0                   0
#       N1         H        N2        N3        N4                     delta_min           delta_max
         0         0         0         0         0                             0                   0
#                  F                   E          Ascaletens
                   0                   0                   0                   0
#                  K                   C                   A                   B                   D
                   0                   1                   0                   0                   0
#       N1         H        N2        N3        N4                     delta_min           delta_max
         0         0         0         0         0                             0                   0
#                  F                   E          Ascaletens
                   0                   0                   0                   0
#                  K                   C                   A                   B                   D
                   0                   0                   0                   0                   0
#       N1         H        N2        N3        N4                     delta_min           delta_max
         0         0         0         0         0                             0                   0
#                  F                   E          Ascaletens
                   0                   0                   0                   0
#                  K                   C                   A                   B                   D
                   0                   0                   0                   0                   0
#       N1         H        N2        N3        N4                     theta_min           theta_max
         0         0         0         0         0                             0                   0
#                  F                   E          Ascaletens
                   0                   0                   0                   0
#                  K                   C                   A                   B                   D
                   0                   0                   0                   0                   0
#       N1         H        N2        N3        N4                     theta_min           theta_max
         0         0         0         0         0                             0                   0
#                  F                   E          Ascaletens
                   0                   0                   0                   0
#                  K                   C                   A                   B                   D
                   0                   0                   0                   0                   0
#       N1         H        N2        N3        N4                     theta_min           theta_max
         0         0         0         0         0                             0                   0
#                  F                   E          Ascaletens
                   0                   0                   0                   0
#   ISTRAT             ASTRAT 
         0                   0
#---1----|----2----|----3----|----4----|----5----|----6----|----7----|----8----|----9----|---10----|
#-  7. FUNCTIONS:
#---1----|----2----|----3----|----4----|----5----|----6----|----7----|----8----|----9----|---10----|
/FUNCT/1
cst=1
#                  X                   Y
                   0                   1                                                            
                1E20                   1                                                            
#---1----|----2----|----3----|----4----|----5----|----6----|----7----|----8----|----9----|---10----|
/FUNCT/2
cst=0
#                  X                   Y
                   0                   0                                                            
                1E20                   0                                                            
#---1----|----2----|----3----|----4----|----5----|----6----|----7----|----8----|----9----|---10----|
#-  8. INTERFACES:
#---1----|----2----|----3----|----4----|----5----|----6----|----7----|----8----|----9----|---10----|
/INTER/TYPE2/1
fluid_solid
#  Slav_id   Surf_id    Ignore  Spotflag     Level   Isearch      Idel                       Dsearch
        13        14         0         0         0         0         0                             0
/GRNOD/NODE/13
GrnodPartForInterfaceId_1
        88        89        90        91        92        93        94        95        96        97
        98        99       100       101       102       103       104       105       106       107
       108       109       110       111       112       113       114       115       116       117
       118       119       120       121       122       123       124       125       126       127
       128       129       130       131       132       133       134       135       136       137
       138     16203     16204     16247     16248     16254     16280     16281     16285     16312
     16313     16318     16324     16357     16358     16362     16390     16391     16395     16423
     16424     16428     16455     16456     16461     16467     16502     16503     16508     16509
     16520     16523     16568     16569     16574     16575     16588     16589     16596     16645
     16646     16651     16652     16663     16666     16711     16712     16717     16718     16732
     16733     16738
/SURF/SEG/14
SurfSegForInterfaceId_1
         1     23360     23361     23362     23385
         2     23385     23362     23363     23384
         3     23384     23363     23364     23383
         4     23383     23364     23365     23382
         5     23382     23365     23366     23381
         6     23381     23366     23367     23380
         7     23380     23367     23368     23379
         8     23379     23368     23369     23378
         9     23378     23369     23370     23377
        10     23377     23370     23371     23376
        11     23376     23371     23372     23375
        12     23375     23372     30001     30000
#---1----|----2----|----3----|----4----|----5----|----6----|----7----|----8----|----9----|---10----|
#-  9. IMPOSED VELOCITIES:
#---1----|----2----|----3----|----4----|----5----|----6----|----7----|----8----|----9----|---10----|
/IMPVEL/10
INLET_LOWER_IMPVEL
#funct_IDT       Dir   skew_ID sensor_ID  grnod_ID  frame_ID     Icoor
         2         X         0         0         8         0         0
#           Ascale_x            Fscale_Y              Tstart               Tstop
                   0                .849                   0                   0
/GRNOD/NODE/8
INLET_LOWER
      2907      2908      2909      2910      2911      2912      2913      2914      2915      2916
      2917      2918      2919      2920      2921     19618     19619     19620     19627     19628
     19635     19636     19643     19681     19682     19690     19691     19698     19699     19703
#---1----|----2----|----3----|----4----|----5----|----6----|----7----|----8----|----9----|---10----|
/IMPVEL/11
INLET_UPPER_IMPVEL
#funct_IDT       Dir   skew_ID sensor_ID  grnod_ID  frame_ID     Icoor
         1         X         0         0         9         0         0
#           Ascale_x            Fscale_Y              Tstart               Tstop
                   0               1.253                   0                   0
/GRNOD/NODE/9
INLET_UPPER
       676       677       678       679       680       681       682       683       684     17387
     17388     17389     17392     17398     17411     17412     17416     17419
#---1----|----2----|----3----|----4----|----5----|----6----|----7----|----8----|----9----|---10----|
#- 10. TIME HISTORIES:
#---1----|----2----|----3----|----4----|----5----|----6----|----7----|----8----|----9----|---10----|
/TH/NODE/1
node_test
#     var1      var2      var3      var4      var5      var6      var7      var8      var9     var10
DEF       
#    NODid     Iskew                                           NODname
     19746         0                                                                                
     20431         0                                                                                
#---1----|----2----|----3----|----4----|----5----|----6----|----7----|----8----|----9----|---10----|
/TH/BRIC/2
brick_test
#     var1      var2      var3      var4      var5      var6      var7      var8      var9     var10
DEF       
#     Elid                                                      Elname
      3370                                                                                          
      3373                                                                                          
      3429                                                                                          
      3431                                                                                          
      3992                                                                                          
      3997                                                                                          
      4011                                                                                          
      4016                                                                                          
#---1----|----2----|----3----|----4----|----5----|----6----|----7----|----8----|----9----|---10----|
/END
#---1----|----2----|----3----|----4----|----5----|----6----|----7----|----8----|----9----|---10----|
