#RADIOSS STARTER
/BEGIN
MAST - cantilever antenna mast under a wind gust (pyradioss /BEAM example)
/NODE
         1        0.0000000000        0.0000000000        0.0000000000
         2        0.0000000000        0.0000000000      200.0000000000
         3        0.0000000000        0.0000000000      400.0000000000
         4        0.0000000000        0.0000000000      600.0000000000
         5        0.0000000000        0.0000000000      800.0000000000
         6        0.0000000000        0.0000000000     1000.0000000000
         7        0.0000000000        0.0000000000     1200.0000000000
         8        0.0000000000        0.0000000000     1400.0000000000
         9        0.0000000000        0.0000000000     1600.0000000000
        10        0.0000000000        0.0000000000     1800.0000000000
        11        0.0000000000        0.0000000000     2000.0000000000
        99        0.0000000000     1000.0000000000        0.0000000000
/BEAM/1
         1         1         2        99
         2         2         3        99
         3         3         4        99
         4         4         5        99
         5         5         6        99
         6         6         7        99
         7         7         8        99
         8         8         9        99
         9         9        10        99
        10        10        11        99
/PART/1
mast tube
         1         1
/MAT/LAW1/1
steel elastic
   7.8e-6
     210.0       0.3
/PROP/BEAM/1
tube D60.3x4
     707.5 2.818e+05 2.818e+05 5.636e+05
/GRNOD/NODE/1
base
1
/GRNOD/NODE/2
tip
11
/BCS/1
clamp base (translations + rotations)
       111       111         0         1
/FUNCT/1
half-sine gust, peak 1.0 at t=10ms, zero after 20ms
    0.0000  0.000000
    2.0000  0.309017
    4.0000  0.587785
    6.0000  0.809017
    8.0000  0.951057
   10.0000  1.000000
   12.0000  0.951057
   14.0000  0.809017
   16.0000  0.587785
   18.0000  0.309017
   20.0000  0.000000
     20.01       0.0
    1000.0       0.0
/CLOAD/1
gust at the tip, +x, peak 0.5 kN
         1         X         2       0.5
/TH/NODE/1
tip motion
DX VX
11
/TH/PART/2
mast energies
IE KE
1
/END
