#RADIOSS STARTER
##========================================================================================
##
/BEGIN
cube_TYPE24
      2019         0
                  Mg                  mm                   s
                  Mg                  mm                   s
##
##--------------------------------------------------------------------------------------------------
## Material Law No 2. JOHNSON-COOK / ZERILLI-ARMSTRONG ELASTOPLASTIC 
##--------------------------------------------------------------------------------------------------
#---1----|----2----|----3----|----4----|----5----|----6----|----7----|----8----|----9----|---10----|
#-  2. MATERIALS:
#---1----|----2----|----3----|----4----|----5----|----6----|----7----|----8----|----9----|---10----|
#                  E                  Nu     Iflag
#                  a                   b                   n           EPS_p_max            SIG_max0
#                  c           EPS_DOT_0       ICC   Fsmooth               F_cut               Chard
#                  m              T_melt              rhoC_p                 T_r
/MAT/PLAS_JOHNS/1
elasto_plastic material                                                                             
#              RHO_I
7.80000000000000E-097.80000000000000E-09
            210000.0                 0.3         0
               200.0               400.0                 0.5                 0.0                 0.0
                 0.0                 0.0         0         0                 0.0                 0.0
                 0.0                 0.0                 0.0                 0.0
#---1----|----2----|----3----|----4----|----5----|----6----|----7----|----8----|----9----|---10----|
#                  E                  Nu     Iflag
#                  a                   b                   n           EPS_p_max            SIG_max0
#                  c           EPS_DOT_0       ICC   Fsmooth               F_cut               Chard
#                  m              T_melt              rhoC_p                 T_r
/MAT/PLAS_JOHNS/4
ice_elasto_plastic                                                                                  
#              RHO_I
9.16000000000000E-109.16000000000000E-10
              8996.0                 0.3         0
                 1.0                 4.0                 0.5                 0.0                 0.0
                 0.0                 0.0         0         0                 0.0                 0.0
                 0.0                 0.0                 0.0                 0.0
##--------------------------------------------------------------------------------------------------
## NODES
##--------------------------------------------------------------------------------------------------
/NODE
         1         -12.5765781                50.0          236.846191
         2                 0.0                50.0          209.609634
         3         -466.519073                50.0          27.2365513
         4         -453.942505                50.0                 0.0
         5         -50.4051172                50.0          219.378718
         6         -88.2336562                50.0          201.911244
         7         -126.062199                50.0          184.443775
         8         -163.890742                50.0          166.976305
         9         -201.719289                50.0          149.508836
        10         -239.547836                50.0          132.041367
        11         -277.376376                50.0            114.5739
        12         -315.204916                50.0          97.1064343
        13         -353.033463                50.0          79.6389599
        14         -390.862009                50.0          62.1714855
        15         -428.690541                50.0          44.7040184
        16         -37.8285431                50.0          192.142165
        17         -75.6570862                50.0          174.674696
        18         -113.485629                50.0          157.207226
        19         -151.314172                50.0          139.739757
        20         -189.142712                50.0          122.272287
# ... 185 like lines cut
##--------------------------------------------------------------------------------------------------
## Boundary Conditions
##--------------------------------------------------------------------------------------------------
#---1----|----2----|----3----|----4----|----5----|----6----|----7----|----8----|----9----|---10----|
#-  4. BOUNDARY CONDITIONS:
#---1----|----2----|----3----|----4----|----5----|----6----|----7----|----8----|----9----|---10----|
##HWCOLOR loadcollectors 2 49
/BCS/2
bcs_ground                                                                                          
   111 111         0         8
/GRNOD/NODE/8
BCS_ground                                                                                          
         2         4        16        17        18        19        20        21        22        23
        24        25        26        29        30        42        43        44        45        46
        47        48        49        50        51        52
#---1----|----2----|----3----|----4----|----5----|----6----|----7----|----8----|----9----|---10----|
##HWCOLOR loadcollectors 4 49
/BCS/4
bcs_cube                                                                                            
   010 000         0        24
/GRNOD/NODE/24
bcs_cube                                                                                            
   1000135   1000136   1000137   1000138   1000139   1000140   1000141   1000142   1000143   1000144
   1000145   1000147   1000148   1000149   1000150   1000151   1000152   1000153   1000154   1000155
   1000156   1000157   1000158   1000159   1000160   1000161
#---1----|----2----|----3----|----4----|----5----|----6----|----7----|----8----|----9----|---10----|
##HWCOLOR loadcollectors 6 49
/BCS/6
bcs_ground2                                                                                         
   111 111         0        54
/GRNOD/NODE/54
bcs_ground2                                                                                         
   1000208   1000209   1000220   1000221   1000222   1000223   1000224   1000225   1000226   1000227
   1000228   1000231   1000232   1000243   1000244   1000245   1000247   1000250   1000315   1000316
   1000317   1000318   1000319   1000320   1000321   1000322   1000335   1000336   1000343   1000344
   1000345   1000346   1000349   1000357   1000358   1000359   1000360   1000364   1000365   1000366
#---1----|----2----|----3----|----4----|----5----|----6----|----7----|----8----|----9----|---10----|
##HWCOLOR loadcollectors 7 49
/BCS/7
bcs_cup                                                                                             
   111 111         0        61
/GRNOD/NODE/61
bcs_cup                                                                                             
   1000334
##--------------------------------------------------------------------------------------------------
## Solid Elements (Hexaedron)
##--------------------------------------------------------------------------------------------------
/BRICK/4
         5   1000142   1000137   1000139   1000143   1000145   1000144   1000147   1000146
         6   1000138   1000142   1000143   1000141   1000148   1000145   1000146   1000149
         7   1000136   1000141   1000143   1000140   1000150   1000149   1000146   1000151
         8   1000135   1000140   1000143   1000139   1000152   1000151   1000146   1000147
         9   1000145   1000144   1000147   1000146   1000154   1000153   1000156   1000155
        10   1000148   1000145   1000146   1000149   1000157   1000154   1000155   1000158
        11   1000150   1000149   1000146   1000151   1000159   1000158   1000155   1000160
        12   1000152   1000151   1000146   1000147   1000161   1000160   1000155   1000156
/BRICK/2
      1001        16        42        30         2         5        31        28         1
      1002        17        43        42        16         6        32        31         5
      1003        18        44        43        17         7        33        32         6
      1004        19        45        44        18         8        34        33         7
      1005        20        46        45        19         9        35        34         8
      1006        21        47        46        20        10        36        35         9
      1007        22        48        47        21        11        37        36        10
      1008        23        49        48        22        12        38        37        11
      1009        24        50        49        23        13        39        38        12
      1010        25        51        50        24        14        40        39        13
      1011        26        52        51        25        15        41        40        14
      1012         4        29        52        26         3        27        41        15
/BRICK/5
      1013   1000227   1000315   1000316   1000228   1000210   1000246   1000241   1000211
      1014   1000228   1000316   1000317   1000225   1000211   1000241   1000242   1000212
      1015   1000220   1000243   1000244   1000208   1000218   1000236   1000233   1000219
      1016   1000209   1000245   1000231   1000247   1000249   1000234   1000229   1000248
      1017   1000221   1000321   1000322   1000222   1000216   1000238   1000235   1000217
      1018   1000222   1000322   1000243   1000220   1000217   1000235   1000236   1000218
      1019   1000208   1000244   1000245   1000209   1000219   1000233   1000234   1000249
      1020   1000225   1000317   1000318   1000226   1000212   1000242   1000239   1000213
      1021   1000226   1000318   1000319   1000224   1000213   1000239   1000240   1000214
      1022   1000224   1000319   1000320   1000223   1000214   1000240   1000237   1000215
      1023   1000223   1000320   1000321   1000221   1000215   1000237   1000238   1000216
      1024   1000250   1000232   1000315   1000227   1000251   1000230   1000246   1000210
      1025   1000343   1000357   1000358   1000335   1000341   1000353   1000350   1000342
      1026   1000336   1000359   1000349   1000360   1000362   1000351   1000348   1000361
      1027   1000344   1000365   1000366   1000345   1000339   1000355   1000352   1000340
      1028   1000345   1000366   1000357   1000343   1000340   1000352   1000353   1000341
      1029   1000335   1000358   1000359   1000336   1000342   1000350   1000351   1000362
      1030   1000247   1000231   1000364   1000346   1000248   1000229   1000354   1000338
      1031   1000346   1000364   1000365   1000344   1000338   1000354   1000355   1000339
##--------------------------------------------------------------------------------------------------
## Quad Shell Elements
##--------------------------------------------------------------------------------------------------
/SHELL/1
         1   1000166   1000170   1000171   1000167                                                  
         2   1000170   1000165   1000169   1000171                                                  
         3   1000169   1000164   1000168   1000171                                                  
         4   1000168   1000163   1000167   1000171                                                  
         5   1000176   1000174   1000179   1000180                                                  
         6   1000180   1000179   1000175   1000178                                                  
         7   1000172   1000176   1000180   1000177                                                  
         8   1000177   1000180   1000178   1000173                                                  
         9   1000185   1000183   1000188   1000189                                                  
        10   1000189   1000188   1000184   1000187                                                  
        11   1000181   1000185   1000189   1000186                                                  
        12   1000186   1000189   1000187   1000182                                                  
        13   1000194   1000192   1000197   1000198                                                  
        14   1000198   1000197   1000193   1000196                                                  
        15   1000190   1000194   1000198   1000195                                                  
        16   1000195   1000198   1000196   1000191                                                  
        17   1000203   1000201   1000206   1000207                                                  
        18   1000207   1000206   1000202   1000205                                                  
        19   1000199   1000203   1000207   1000204                                                  
        20   1000204   1000207   1000205   1000200                                                  
##--------------------------------------------------------------------------------------------------
## Shell Property Set (pid 1)
##--------------------------------------------------------------------------------------------------
#                 hm                  hf                  hr                  dm                  dn
#        N   Istrain               Thick              Ashear              Ithick     Iplas
/PROP/SHELL/2
shell                                                                                               
#   Ishell    Ismstr     Ish3n    Idrill                            P_thick_fail
         0         0         0         0                                     0.0
                 0.0                 0.0                 0.0                 0.0                 0.0
         0         0                 5.0                 0.0                   0         0
##--------------------------------------------------------------------------------------------------
## General Solid Property Set (pid 14)
##--------------------------------------------------------------------------------------------------
#---1----|----2----|----3----|----4----|----5----|----6----|----7----|----8----|----9----|---10----|
#-  6. GEOMETRICAL SETS:
#---1----|----2----|----3----|----4----|----5----|----6----|----7----|----8----|----9----|---10----|
#                q_a                 q_b                   h            LAMBDA_V                MU_V
#             dt_min   istrain      IHKT
#---1----|----2----|----3----|----4----|----5----|----6----|----7----|----8----|----9----|---10----|
#                q_a                 q_b                   h            LAMBDA_V                MU_V
#             dt_min   istrain      IHKT
#---1----|----2----|----3----|----4----|----5----|----6----|----7----|----8----|----9----|---10----|
#-  7. FUNCTIONS:
#---1----|----2----|----3----|----4----|----5----|----6----|----7----|----8----|----9----|---10----|
/PROP/SOLID/1
ice                                                                                                 
#   Isolid    Ismstr               Icpre               Inpts    Itetra    Iframe 
        24         0                   0                             0         0                 0.0
                 0.0                 0.0                                     0.0                 0.0
                 0.0         0         0
/PROP/SOLID/3
ground                                                                                              
#   Isolid    Ismstr               Icpre               Inpts    Itetra    Iframe 
        24         0                   0                             0         0                 0.0
                 0.0                 0.0                                     0.0                 0.0
                 0.0         0         0
##--------------------------------------------------------------------------------------------------
## Functions
##--------------------------------------------------------------------------------------------------
##HWCOLOR curves 1 4
/FUNCT/1
function 1                                                                                          
#                  X                   Y
                 0.0                 1.0
             10000.0                 1.0
##--------------------------------------------------------------------------------------------------
## Gravity Loads
##--------------------------------------------------------------------------------------------------
#---1----|----2----|----3----|----4----|----5----|----6----|----7----|----8----|----9----|---10----|
#-  8. GRAVITIES:
#---1----|----2----|----3----|----4----|----5----|----6----|----7----|----8----|----9----|---10----|
##HWCOLOR loadcollectors 8 63
/GRAV/8
gravity                                                                                             
         1         Z         0         0        39          1.00000000000000    -9810.00000000000   
/GRNOD/NODE/39
gravity                                                                                             
   1000135   1000136   1000137   1000138   1000139   1000140   1000141   1000142   1000143   1000144
   1000145   1000147   1000148   1000149   1000150   1000151   1000152   1000153   1000154   1000155
   1000156   1000157   1000158   1000159   1000160   1000161
##--------------------------------------------------------------------------------------------------
## Interface Type24
##--------------------------------------------------------------------------------------------------
##HMGROUP  5 5
/INTER/TYPE24/5
sliding                                                                                             
        69        71         4                             0                   0
         0                             0                                     0.0                 0.0
                 0.0                 0.0         0         0                 0.0
                 0.0                 0.0                                     0.0                 0.0
       000                             0                 0.0
         0         0                 0.0                   0
## HM Warning: The set associated with the above card is being output in a different location of the deck.
## HM Warning: The set associated with the above card is being output in a different location of the deck.
##--------------------------------------------------------------------------------------------------
## N Noded Rigid Bodies
##--------------------------------------------------------------------------------------------------
#---1----|----2----|----3----|----4----|----5----|----6----|----7----|----8----|----9----|---10----|
#- 10. RIGID BODIES:
#---1----|----2----|----3----|----4----|----5----|----6----|----7----|----8----|----9----|---10----|
#                Jxx                 Jyy                 Jzz
#                Jxy                 Jyz                 Jxz
#  Ioptoff   Iexpams
##HMMOVE elements 1 6
/RBODY/1
rigid body                                                                                          
   1000334         0         0         0                 0.0        57         0         0         0
                 0.0                 0.0                 0.0
                 0.0                 0.0                 0.0
         0         0
/GRNOD/NODE/57
New GRNOD 57 _nodes_subsubgroup_                                                                    
   1000163   1000164   1000165   1000166   1000167   1000168   1000169   1000170   1000171   1000172
   1000173   1000174   1000175   1000176   1000177   1000178   1000179   1000180   1000181   1000182
   1000183   1000184   1000185   1000186   1000187   1000188   1000189   1000190   1000191   1000192
   1000193   1000194   1000195   1000196   1000197   1000198   1000199   1000200   1000201   1000202
   1000203   1000204   1000205   1000206   1000207
##--------------------------------------------------------------------------------------------------
## Sets
##--------------------------------------------------------------------------------------------------
##--------------------------------------------------------------------------------------------------
## Surface Definition (External)
##--------------------------------------------------------------------------------------------------
/SURF/PART/EXT/69
SurfPartForInterfaceId_5                                                                            
         4
/SURF/PART/EXT/71
INTER_group_72_of_PART                                                                              
         1         2         5
#---1----|----2----|----3----|----4----|----5----|----6----|----7----|----8----|----9----|---10----|
#-  9. INTERFACES:
#---1----|----2----|----3----|----4----|----5----|----6----|----7----|----8----|----9----|---10----|
#- 11. SURFACES:
#---1----|----2----|----3----|----4----|----5----|----6----|----7----|----8----|----9----|---10----|
##HWCOLOR components 1 4
/PART/1
cup                                                                                                 
         2         1                              
#---1----|----2----|----3----|----4----|----5----|----6----|----7----|----8----|----9----|---10----|
##HWCOLOR components 2 5
/PART/2
GROUND 1                                                                                            
         3         1                              
#---1----|----2----|----3----|----4----|----5----|----6----|----7----|----8----|----9----|---10----|
##HWCOLOR components 4 4
/PART/4
CUBE                                                                                                
         1         4                              
#---1----|----2----|----3----|----4----|----5----|----6----|----7----|----8----|----9----|---10----|
##HWCOLOR components 5 5
/PART/5
GROUND 2                                                                                            
         3         1                              
##--------------------------------------------------------------------------------------------------
## Time History - Nodes
##--------------------------------------------------------------------------------------------------
##--------------------------------------------------------------------------------------------------
## Time History - Elems
##--------------------------------------------------------------------------------------------------
##--------------------------------------------------------------------------------------------------
## Time History - Parts
##--------------------------------------------------------------------------------------------------
/TH/PART/3
PARTS                                                                                               
DEF       
         2         1         4         5
##--------------------------------------------------------------------------------------------------
## Time History - Frames
##--------------------------------------------------------------------------------------------------
##--------------------------------------------------------------------------------------------------
## Time History - Interfaces and Rwalls
##--------------------------------------------------------------------------------------------------
/TH/INTER/4
interfaces                                                                                          
DEF       
         5
##--------------------------------------------------------------------------------------------------
## Time History - Cyl Joints
##--------------------------------------------------------------------------------------------------
##--------------------------------------------------------------------------------------------------
## Time History - Accelerometer
##--------------------------------------------------------------------------------------------------
##--------------------------------------------------------------------------------------------------
## Time History - Monv and Sections
##--------------------------------------------------------------------------------------------------
##--------------------------------------------------------------------------------------------------
## Time History - Subsets
##--------------------------------------------------------------------------------------------------
##--------------------------------------------------------------------------------------------------
## Time History - Control vols
##--------------------------------------------------------------------------------------------------
##--------------------------------------------------------------------------------------------------
## Time History - Cross Sections
##--------------------------------------------------------------------------------------------------
##--------------------------------------------------------------------------------------------------
## Time History - Rigid Walls
##--------------------------------------------------------------------------------------------------
##--------------------------------------------------------------------------------------------------
## Time History - Load Collectors
##--------------------------------------------------------------------------------------------------
##--------------------------------------------------------------------------------------------------
## Time History - Sets
##--------------------------------------------------------------------------------------------------
##--------------------------------------------------------------------------------------------------
## Time History - Element Clusters
##--------------------------------------------------------------------------------------------------
##------------------------------------------------------------------------------
## End Of Radioss Block Deck
##------------------------------------------------------------------------------
/END
##--------------------------------------------------------------------------------------------------
## HM_FOOTER_COMMENTS - BEGIN
##--------------------------------------------------------------------------------------------------
#---1----|----2----|----3----|----4----|----5----|----6----|----7----|----8----|----9----|---10----|
## HM_FOOTER_COMMENTS - END
