#RADIOSS STARTER
#--------------------------------------------------------------------------------------------------|
#- RADIOSS DECK WRITTEN BY HyperCrash
#HyperCrash 14.0 (64 bits) 
#Mon Dec 21 15:13:43 2015
#-
#--------------------------------------------------------------------------------------------------|
#- RADIOSS DECK WRITTEN BY HyperCrash
#HyperCrash 10.0 SA2 (64 bits)
#Tue Jul 20 12:36:54 2010
#-
#--------------------------------------------------------------------------------------------------|
#- RADIOSS DECK / GENERATED BY HELIOSS 3.3.a3
#--------------------------------------------------------------------------------------------------|
#-
#- DATE	Tue Jul 20 12:36:54 2010
#--------------------------------------------------------------------------------------------------|
#---1----|----2----|----3----|----4----|----5----|----6----|----7----|----8----|----9----|---10----|
#-
#- DATE	Mon Dec 21 15:13:43 2015
#--------------------------------------------------------------------------------------------------|
#---1----|----2----|----3----|----4----|----5----|----6----|----7----|----8----|----9----|---10----|
/BEGIN
ROLLING                                                                         
       140         0
                   g                  mm                  ms
                   g                  mm                  ms
#---1----|----2----|----3----|----4----|----5----|----6----|----7----|----8----|----9----|---10----|
#-  1. CONTROL CARDS:
#---1----|----2----|----3----|----4----|----5----|----6----|----7----|----8----|----9----|---10----|
/TITLE
Pure Bending
#---1----|----2----|----3----|----4----|----5----|----6----|----7----|----8----|----9----|---10----|
/ANALY
#    N2D3D             IPARITH      ISUB
         0                   0         0
#---1----|----2----|----3----|----4----|----5----|----6----|----7----|----8----|----9----|---10----|
/DEF_SHELL
#   ISHELL    ISMSTR    ITHICK     IPLAS   ISTRAIN                        I_SH3N     IDRIL
         0         0         0         0         0                             0         0
#---1----|----2----|----3----|----4----|----5----|----6----|----7----|----8----|----9----|---10----|
/DEF_SOLID
#  I_SOLID    ISMSTR             ISTRAIN                                  IFRAME
         0         0                   0                                       0
#---1----|----2----|----3----|----4----|----5----|----6----|----7----|----8----|----9----|---10----|
/IOFLAG
#     IPRI               IGTYP     IOUTP    IOUTYY   IROOTYY     IDROT
         0                   0         0         0         0         0
#---1----|----2----|----3----|----4----|----5----|----6----|----7----|----8----|----9----|---10----|
/SPMD
#   DOMDEC     Nproc              Dkword             Nthread
         0         0                   0                   1
#---1----|----2----|----3----|----4----|----5----|----6----|----7----|----8----|----9----|---10----|
#-  2. MATERIALS:
#---1----|----2----|----3----|----4----|----5----|----6----|----7----|----8----|----9----|---10----|
/MAT/ELAST/102
ELASTIC
#              RHO_I
                 .01                 .01
#                  E                  nu
                1000                   0
#---1----|----2----|----3----|----4----|----5----|----6----|----7----|----8----|----9----|---10----|
#-  3. NODES:
#---1----|----2----|----3----|----4----|----5----|----6----|----7----|----8----|----9----|---10----|
/NODE
         6                   0                   0                   0
         7                   0                   0         -15.1999998
         8                   0                   0         -30.2999992
         9                   0                   0               -45.5
        10                   0                   0         -60.5999985
        11                   0                   0         -75.8000031
        12                   0                   0         -90.9000015
        13                   0                   0         -106.099998
        14                   0                   0         -121.199997
        15                   0                   0         -136.399994
        16                   0                   0              -151.5
        17                   0                   0         -166.699997
        18                   0                   0         -181.800003
        19                   0                   0                -197
        20                   0                   0         -212.100006
        21                   0                   0         -227.300003
        22                   0                   0         -242.399994
        23                   0                   0         -257.600006
        24                   0                   0         -272.700012
        25                   0                   0         -287.899994
# ... 119 like lines cut
#---1----|----2----|----3----|----4----|----5----|----6----|----7----|----8----|----9----|---10----|
#-  4. BOUNDARY CONDITIONS:
#---1----|----2----|----3----|----4----|----5----|----6----|----7----|----8----|----9----|---10----|
/BCS/1
clamp
#  Tra rot   skew_ID  grnod_ID
   111 111         0         2
/GRNOD/NODE/2
New GRNOD 1 _nodes_subsubgroup_
        39        40        41        42
#---1----|----2----|----3----|----4----|----5----|----6----|----7----|----8----|----9----|---10----|
/BCS/2
rot
#  Tra rot   skew_ID  grnod_ID
   000 011         0         6
/GRNOD/NODE/6
n_master
      1019
#---1----|----2----|----3----|----4----|----5----|----6----|----7----|----8----|----9----|---10----|
#-  5. PARTS:
#---1----|----2----|----3----|----4----|----5----|----6----|----7----|----8----|----9----|---10----|
/PART/4
BT_TYPE4
       202       102         0
#---1----|----2----|----3----|----4----|----5----|----6----|----7----|----8----|----9----|---10----|
# SHELL elements of /PART/4/BT_TYPE4:
#---1----|----2----|----3----|----4----|----5----|----6----|----7----|----8----|----9----|---10----|
/SHELL/4
         1        39        40        78        38                                                 0
         2        38        78        79        37                                                 0
         3        37        79        80        36                                                 0
         4        36        80        81        35                                                 0
         5        35        81        82        34                                                 0
         6        34        82        83        33                                                 0
         7        33        83        84        32                                                 0
         8        32        84        85        31                                                 0
         9        31        85        86        30                                                 0
        10        30        86        87        29                                                 0
        11        29        87        88        28                                                 0
        12        28        88        89        27                                                 0
        13        27        89        90        26                                                 0
        14        26        90        91        25                                                 0
        15        25        91        92        24                                                 0
        16        24        92        93        23                                                 0
        17        23        93        94        22                                                 0
        18        22        94        95        21                                                 0
        19        21        95        96        20                                                 0
        20        20        96        97        19                                                 0
# ... 79 like lines cut
#---1----|----2----|----3----|----4----|----5----|----6----|----7----|----8----|----9----|---10----|
#-  6. GEOMETRICAL SETS:
#---1----|----2----|----3----|----4----|----5----|----6----|----7----|----8----|----9----|---10----|
/PROP/SHELL/202
BT_TYPE4
#   Ishell    Ismstr     Ish3n    Idrill
         4         0         0         0
#                 hm                  hf                  hr                  dm                  dn
                   0                   0                   0                   0                   0
#        N   Istrain               Thick              Ashear              Ithick     Iplas
         0         0                  20                   0                   0         0
#---1----|----2----|----3----|----4----|----5----|----6----|----7----|----8----|----9----|---10----|
#-  7. FUNCTIONS:
#---1----|----2----|----3----|----4----|----5----|----6----|----7----|----8----|----9----|---10----|
/FUNCT/5
lineaire
#                  X                   Y
                -500                   0                                                            
                   0                   0                                                            
                 500                   1                                                            
               10000                   1                                                            
#---1----|----2----|----3----|----4----|----5----|----6----|----7----|----8----|----9----|---10----|
#-  8. RIGID BODIES:
#---1----|----2----|----3----|----4----|----5----|----6----|----7----|----8----|----9----|---10----|
/RBODY/1
RB
#     RBID     ISENS     NSKEW    ISPHER                MASS   Gnod_id     IKREM      ICOG   Surf_id
      1021         0         0         0                   0        12         0         0         0
#                Jxx                 Jyy                 Jzz
                   0                   0                   0
#                Jxy                 Jyz                 Jxz
                   0                   0                   0
#Ioptoff
         0
/GRNOD/GRNOD/12
New GRNOD 12
        14
/GRNOD/GRNOD/14
New GRNOD 12 _nodes_subgroup_
        13
/GRNOD/NODE/13
New GRNOD 12 _nodes_subsubgroup_
         6        75        76        77
#---1----|----2----|----3----|----4----|----5----|----6----|----7----|----8----|----9----|---10----|
#-  9. IMPOSED VELOCITIES:
#---1----|----2----|----3----|----4----|----5----|----6----|----7----|----8----|----9----|---10----|
/IMPVEL/1
New IMPVEL 1
#funct_IDT       Dir   skew_ID sensor_ID  grnod_ID  frame_ID     Icoor
         5        XX         0         0        15         0         0
#           Ascale_x            Fscale_Y              Tstart               Tstop
                   0                .005                   0                   0
/GRNOD/NODE/15
ref_NODE_1021
      1021
#---1----|----2----|----3----|----4----|----5----|----6----|----7----|----8----|----9----|---10----|
#- 10. NODE GROUPS:
#---1----|----2----|----3----|----4----|----5----|----6----|----7----|----8----|----9----|---10----|
/GRNOD/NODE/7
n_1
         6        75        76        77
#---1----|----2----|----3----|----4----|----5----|----6----|----7----|----8----|----9----|---10----|
/GRNOD/GRNOD/8
New GRNOD 8
        10
#---1----|----2----|----3----|----4----|----5----|----6----|----7----|----8----|----9----|---10----|
/GRNOD/NODE/9
New GRNOD 8 _nodes_subsubgroup_
         7        74       109       141
#---1----|----2----|----3----|----4----|----5----|----6----|----7----|----8----|----9----|---10----|
/GRNOD/GRNOD/10
New GRNOD 8 _nodes_subgroup_
         9
#---1----|----2----|----3----|----4----|----5----|----6----|----7----|----8----|----9----|---10----|
/GRNOD/NODE/11
ref_NODE_1020
      1020
#---1----|----2----|----3----|----4----|----5----|----6----|----7----|----8----|----9----|---10----|
#- 11. TIME HISTORIES:
#---1----|----2----|----3----|----4----|----5----|----6----|----7----|----8----|----9----|---10----|
/TH/SHEL/2
sh4
#     var1      var2      var3      var4      var5      var6      var7      var8      var9     var10
DEF       
#     Elid                                                      Elname
         1                                                                                          
        33                                                                                          
        34                                                                                          
        66                                                                                          
        67                                                                                          
        99                                                                                          
#---1----|----2----|----3----|----4----|----5----|----6----|----7----|----8----|----9----|---10----|
/TH/PART/4
part
#     var1      var2      var3      var4      var5      var6      var7      var8      var9     var10
DEF       
#     Obj1      Obj2      Obj3      Obj4      Obj5      Obj6      Obj7      Obj8      Obj9     Obj10
         4
#---1----|----2----|----3----|----4----|----5----|----6----|----7----|----8----|----9----|---10----|
/TH/NODE/7
point1
#     var1      var2      var3      var4      var5      var6      var7      var8      var9     var10
ARX       AY        AZ        DY        DZ        VRX       VY        VZ        
#    NODid     Iskew                                           NODname
         6         0point1_group_0                                                                  
      1021         0                                                                                
#---1----|----2----|----3----|----4----|----5----|----6----|----7----|----8----|----9----|---10----|
/TH/RBODY/8
RB
#     var1      var2      var3      var4      var5      var6      var7      var8      var9     var10
DEF       
#     Obj1      Obj2      Obj3      Obj4      Obj5      Obj6      Obj7      Obj8      Obj9     Obj10
         1
#---1----|----2----|----3----|----4----|----5----|----6----|----7----|----8----|----9----|---10----|
/END
#---1----|----2----|----3----|----4----|----5----|----6----|----7----|----8----|----9----|---10----|
