#RADIOSS STARTER
/BEGIN
SNAPC - snap-through caught by a TYPE7 stop (arc length, M14)
/NODE
         1     -100.0000000000        0.0000000000        0.0000000000
         2      100.0000000000        0.0000000000        0.0000000000
         3        0.0000000000       20.0000000000        0.0000000000
        11      -10.0000000000      -29.0000000000      -10.0000000000
        12       10.0000000000      -29.0000000000      -10.0000000000
        13       10.0000000000      -29.0000000000       10.0000000000
        14      -10.0000000000      -29.0000000000       10.0000000000
        15      -10.0000000000      -19.0000000000      -10.0000000000
        16       10.0000000000      -19.0000000000      -10.0000000000
        17       10.0000000000      -19.0000000000       10.0000000000
        18      -10.0000000000      -19.0000000000       10.0000000000
/TRUSS/1
         1         1         3
         2         2         3
/PART/1
bars
         1         1
/MAT/LAW1/1
elastic bar
   7.8e-6
     210.0       0.0
/PROP/TRUSS/1
bar
       1.0
/BRICK/2
         1        11        14        13        12        15        18        17        16
/PART/2
pad
         2         2
/MAT/LAW1/2
pad
   7.8e-6
     210.0       0.0
/PROP/SOLID/2
solid
       1.1      0.05       0.1
/GRNOD/NODE/1
pinned supports
1 2
/GRNOD/NODE/2
apex
3
/GRNOD/NODE/11
pad nodes
11 12 13 14 15 16 17 18
/GRNOD/NODE/12
apex secondary
3
/BCS/1
pin the supports
       111       000         0         1
/BCS/2
apex stays in the xy plane
       001       000         0         2
/BCS/11
clamp the pad
       111       111         0        11
/SURF/SEG/1
pad top face (+y)
        15        16        17        18
/INTER/TYPE7/1
the stop
        12         1         1         0
      50.0     0.000      4.00       0.0
/FUNCT/1
proportional load-factor ramp
       0.0       0.0
     100.0     100.0
/CLOAD/1
push the apex down
         1         Y         2       -0.8135216251914509
/END
