#RADIOSS STARTER
/BEGIN
EDGE
      2022         0
                  Mg                  mm                   s
                  Mg                  mm                   s
/NODE
#   node_ID                   X                   Y                   Z
         1               -40.0                -5.0                 0.0
         2               -37.5                -5.0                 0.0
         3               -35.0                -5.0                 0.0
         4               -32.5                -5.0                 0.0
         5               -30.0                -5.0                 0.0
         6               -27.5                -5.0                 0.0
         7               -25.0                -5.0                 0.0
         8               -22.5                -5.0                 0.0
         9               -20.0                -5.0                 0.0
        10               -17.5                -5.0                 0.0
        11               -15.0                -5.0                 0.0
        12               -12.5                -5.0                 0.0
        13               -10.0                -5.0                 0.0
        14                -7.5                -5.0                 0.0
        15                -5.0                -5.0                 0.0
        16                -2.5                -5.0                 0.0
        17                 0.0                -5.0                 0.0
        18                 2.5                -5.0                 0.0
        19                 5.0                -5.0                 0.0
        20                 7.5                -5.0                 0.0
# ... 310 like lines cut
/SHELL/1
         1         1         2        35        34
         2         2         3        36        35
         3         3         4        37        36
         4         4         5        38        37
         5         5         6        39        38
         6         6         7        40        39
         7         7         8        41        40
         8         8         9        42        41
         9         9        10        43        42
        10        10        11        44        43
        11        11        12        45        44
        12        12        13        46        45
        13        13        14        47        46
        14        14        15        48        47
        15        15        16        49        48
        16        16        17        50        49
        17        17        18        51        50
        18        18        19        52        51
        19        19        20        53        52
        20        20        21        54        53
# ... 108 like lines cut
/SHELL/2
     10001     10001     10002     10035     10034
     10002     10002     10003     10036     10035
     10003     10003     10004     10037     10036
     10004     10004     10005     10038     10037
     10005     10005     10006     10039     10038
     10006     10006     10007     10040     10039
     10007     10007     10008     10041     10040
     10008     10008     10009     10042     10041
     10009     10009     10010     10043     10042
     10010     10010     10011     10044     10043
     10011     10011     10012     10045     10044
     10012     10012     10013     10046     10045
     10013     10013     10014     10047     10046
     10014     10014     10015     10048     10047
     10015     10015     10016     10049     10048
     10016     10016     10017     10050     10049
     10017     10017     10018     10051     10050
     10018     10018     10019     10052     10051
     10019     10019     10020     10053     10052
     10020     10020     10021     10054     10053
# ... 108 like lines cut
/PART/1
supported strip
         1         1
/PART/2
flyer strip
         1         1
/MAT/LAW1/1
elastic steel
             7.8e-06
               210.0                 0.3
/PROP/SHELL/1
strip t=1.0
#    Ishell    Ismstr     Ish3n    Idrill
         1         0         0         0
#                   hm                  hf                  hr
                0.01                0.01                0.01
#         N   Istrain               Thick
         3         0                 1.0
/GRNOD/NODE/1
supported ends
         1        34        67       100       133        33        66        99       132       165
/GRNOD/PART/2
flyer
         2
/BCS/1
pin the supported ends
   111 000         0         1
/INIVEL/TRA/1
drop the flyer
                 0.0                 0.0                -2.0         2
/SURF/PART/1
supported strip surface
         1
/SURF/PART/2
flyer surface
         2
/LINE/SURF/1
flyer edges
         2
/LINE/SURF/2
supported strip edges
         1
/INTER/TYPE11/1
crossed edges
#  line_IDs  line_IDm      Istf     (Ithe)      Igap
         1         2         2                   1
          
#               Stfac                Fric              GAPmin
                 1.0                 0.0                 0.0
          
          
/TH/NODE/1
flyer centre
DZ        VZ        
     10083
/END
