#RADIOSS STARTER
#--------------------------------------------------------------------------------------------------|
#- RADIOSS DECK WRITTEN BY HyperCrash
#HyperCrash 2020.1 (64 bits) 
#Wed Sep  2 08:55:33 2020
#-
#--------------------------------------------------------------------------------------------------|
#---1----|----2----|----3----|----4----|----5----|----6----|----7----|----8----|----9----|---10----|
#
#-
#- DATE	Wed Sep  2 08:55:33 2020
#--------------------------------------------------------------------------------------------------|
#---1----|----2----|----3----|----4----|----5----|----6----|----7----|----8----|----9----|---10----|
/BEGIN
BRAKE                                                                           
      2021         0
                  kg                  mm                  ms
                  kg                  mm                  ms
#---1----|----2----|----3----|----4----|----5----|----6----|----7----|----8----|----9----|---10----|
#-  1. CONTROL CARDS:
#---1----|----2----|----3----|----4----|----5----|----6----|----7----|----8----|----9----|---10----|
/TITLE

#---1----|----2----|----3----|----4----|----5----|----6----|----7----|----8----|----9----|---10----|
#-  2. MATERIALS:
#---1----|----2----|----3----|----4----|----5----|----6----|----7----|----8----|----9----|---10----|
/MAT/PLAS_JOHNS/2
Pad material
#              RHO_I
              7.3E-6                   0
#                  E                  Nu     Iflag
                 160                  .3         0
#                  a                   b                   n           EPS_p_max            SIG_max0
                .206                 .45                  .5                   0                   0
#                  c           EPS_DOT_0       ICC   Fsmooth               F_cut               Chard
                   0                   0         0         0                   0                   0
#                  m              T_melt              rhoC_p                 T_r
                   0                   0             0.00244                 300                   
/HEAT/MAT/2
#                 T0             RHO0_CP                  AS                  BS     IFORM
                 300             0.00244                0.02                   0         1
#                 T1                  AL                  BL               EFRAC
                2000                0.02                   0                   0
#---1----|----2----|----3----|----4----|----5----|----6----|----7----|----8----|----9----|---10----|
/MAT/PLAS_JOHNS/3
steel brake rotor elasto_plastic material
#              RHO_I
              7.8E-6                   0
#                  E                  Nu     Iflag
                 210                 .33         0
#                  a                   b                   n           EPS_p_max            SIG_max0
                .206                 .45                  .5                   0                   0
#                  c           EPS_DOT_0       ICC   Fsmooth               F_cut               Chard
                   0                   0         0         0                   0                   0
#                  m              T_melt              rhoC_p                 T_r
                   0                   0               0.004                 300                    
/HEAT/MAT/3
#                 T0             RHO0_CP                  AS                  BS     IFORM
                 300               0.004                0.02                   0         1
#                 T1                  AL                  BL               EFRAC
                2000                0.02                   0                   0
#---1----|----2----|----3----|----4----|----5----|----6----|----7----|----8----|----9----|---10----|
#-  3. NODES:
#---1----|----2----|----3----|----4----|----5----|----6----|----7----|----8----|----9----|---10----|
/NODE
         1          -22.275772                 6.2           61.202179
         2          -32.434795                 6.2           89.113869
         3           32.434795                 6.2           89.113869
         4           22.275772                 6.2           61.202179
         5          -11.298169                 6.2           64.080914
         6                   0                 6.2           65.049042
         7           11.298171                 6.2           64.080913
         8          -24.307577                 6.2           66.784517
         9          -26.339381                 6.2           72.366855
        10          -28.371186                 6.2           77.949193
        11          -30.402991                 6.2           83.531531
        12          -16.458971                 6.2            93.33948
        13               -1E-6                 6.2           94.761681
        14            16.45897                 6.2            93.33948
        15           24.307577                 6.2           66.784517
        16           26.339381                 6.2           72.366855
        17           28.371186                 6.2           77.949193
        18           30.402991                 6.2           83.531531
        19           15.426584                 6.2           87.487707
        20           14.394312                 6.2           81.635964
# ... 1351 like lines cut
#---1----|----2----|----3----|----4----|----5----|----6----|----7----|----8----|----9----|---10----|
#-  4. BOUNDARY CONDITIONS:
#---1----|----2----|----3----|----4----|----5----|----6----|----7----|----8----|----9----|---10----|
/BCS/2
bc1
#  Tra rot   skew_ID  grnod_ID
   101 111         0        17
/GRNOD/NODE/17
masternode1
      1436
#---1----|----2----|----3----|----4----|----5----|----6----|----7----|----8----|----9----|---10----|
/BCS/3
bc2
#  Tra rot   skew_ID  grnod_ID
   101 111         0        21
/GRNOD/NODE/21
masternode2
      1437
#---1----|----2----|----3----|----4----|----5----|----6----|----7----|----8----|----9----|---10----|
/BCS/4
BC2
#  Tra rot   skew_ID  grnod_ID
   111 101         0        52
/GRNOD/NODE/52
New GRNOD 52
      1438
#---1----|----2----|----3----|----4----|----5----|----6----|----7----|----8----|----9----|---10----|
#-  5. SKEWS & FRAMES:
#---1----|----2----|----3----|----4----|----5----|----6----|----7----|----8----|----9----|---10----|
/FRAME/FIX/1
disc axel
#                 OX                  OY                  OZ
      1.24778355E-15                 2.5     -3.65204942E-16
#                 X1                  Y1                  Z1
                   0                   1                   0
#                 X2                  Y2                  Z2
                   0                   0                   1
#---1----|----2----|----3----|----4----|----5----|----6----|----7----|----8----|----9----|---10----|
#-  6. PARTS:
#---1----|----2----|----3----|----4----|----5----|----6----|----7----|----8----|----9----|---10----|
/PART/1
Brake rotor disc
         2         3         0
#---1----|----2----|----3----|----4----|----5----|----6----|----7----|----8----|----9----|---10----|
# BRICK elements of /PART/1/Brake rotor disc:
#---1----|----2----|----3----|----4----|----5----|----6----|----7----|----8----|----9----|---10----|
/BRICK/1
       461       184       185       237       228       600       599       602       601
       462       228       237       254       229       601       602       604       603
       463       229       254       271       230       603       604       606       605
       464       230       271       288       231       605       606       608       607
       465       231       288       305       232       607       608       610       609
       466       232       305       322       233       609       610       612       611
       467       233       322       339       234       611       612       614       613
       468       234       339       356       235       613       614       616       615
       469       235       356       373       236       615       616       618       617
       470       236       373       218       183       617       618       620       619
       471       185       186       238       237       599       621       622       602
       472       237       238       255       254       602       622       623       604
       473       254       255       272       271       604       623       624       606
       474       271       272       289       288       606       624       625       608
       475       288       289       306       305       608       625       626       610
       476       305       306       323       322       610       626       627       612
       477       322       323       340       339       612       627       628       614
       478       339       340       357       356       614       628       629       616
       479       356       357       374       373       616       629       630       618
       480       373       374       217       218       618       630       631       620
# ... 700 like lines cut
#---1----|----2----|----3----|----4----|----5----|----6----|----7----|----8----|----9----|---10----|
/PART/2
PAD
         2         2         0
#---1----|----2----|----3----|----4----|----5----|----6----|----7----|----8----|----9----|---10----|
# BRICK elements of /PART/2/PAD:
#---1----|----2----|----3----|----4----|----5----|----6----|----7----|----8----|----9----|---10----|
/BRICK/2
        21         3        18        19        14        32        31        34        33
        22        14        19        23        13        33        34        36        35
        23        13        23        27        12        35        36        38        37
        24        12        27        11         2        37        38        40        39
        25        18        17        20        19        31        41        42        34
        26        19        20        24        23        34        42        43        36
        27        23        24        28        27        36        43        44        38
        28        27        28        10        11        38        44        45        40
        29        17        16        21        20        41        46        47        42
        30        20        21        25        24        42        47        48        43
        31        24        25        29        28        43        48        49        44
        32        28        29         9        10        44        49        50        45
        33        16        15        22        21        46        51        52        47
        34        21        22        26        25        47        52        53        48
        35        25        26        30        29        48        53        54        49
        36        29        30         8         9        49        54        55        50
        37        15         4         7        22        51        56        57        52
        38        22         7         6        26        52        57        58        53
        39        26         6         5        30        53        58        59        54
        40        30         5         1         8        54        59        60        55
# ... 60 like lines cut
#---1----|----2----|----3----|----4----|----5----|----6----|----7----|----8----|----9----|---10----|
#-  7. GEOMETRICAL SETS:
#---1----|----2----|----3----|----4----|----5----|----6----|----7----|----8----|----9----|---10----|
/PROP/SOLID/2
Solid
#   Isolid    Ismstr               Icpre  Itetra10     Inpts   Itetra4    Iframe                  dn
        24         0                   0         0         0         0         0                   0
#                q_a                 q_b                   h            LAMBDA_V                MU_V
                   0                   0                   0                   0                   0
#             dt_min   istrain      IHKT
                   0         0         0
#---1----|----2----|----3----|----4----|----5----|----6----|----7----|----8----|----9----|---10----|
#-  8. FUNCTIONS:
#---1----|----2----|----3----|----4----|----5----|----6----|----7----|----8----|----9----|---10----|
/FUNCT/1
FUNCT 1
#                  X                   Y
                   0                   1
                  10                   1
#---1----|----2----|----3----|----4----|----5----|----6----|----7----|----8----|----9----|---10----|
#-  9. CONCENTRATED LOADS:
#---1----|----2----|----3----|----4----|----5----|----6----|----7----|----8----|----9----|---10----|
/CLOAD/1
LOAD 1
#funct_IDT       Dir   skew_ID sensor_ID  grnod_ID                       Ascalex             Fscaley
         1         Y         0         0        22                          1000                  .3
/GRNOD/NODE/22
New GRNOD 22
      1436
#---1----|----2----|----3----|----4----|----5----|----6----|----7----|----8----|----9----|---10----|
/CLOAD/2
LOAD 2
#funct_IDT       Dir   skew_ID sensor_ID  grnod_ID                       Ascalex             Fscaley
         1         Y         0         0        25                          1000                 -.3
/GRNOD/NODE/25
New GRNOD 25
      1437
#---1----|----2----|----3----|----4----|----5----|----6----|----7----|----8----|----9----|---10----|
#- 10. INITIAL VELOCITIES:
#---1----|----2----|----3----|----4----|----5----|----6----|----7----|----8----|----9----|---10----|
/INIVEL/AXIS/1
initial_velocity_5000_rpm
#      DIR  FRAME_ID  GRNOD_ID
         Y         1        37
#                Vxt                 Vyt                 Vzt                  VR
                   0                   0                   0               .5236
/GRNOD/GRNOD/37
initial_velocity
         3         5
/GRNOD/PART/3
brake rotor disc
         1
/GRNOD/NODE/5
RBODY master
      1438
#---1----|----2----|----3----|----4----|----5----|----6----|----7----|----8----|----9----|---10----|
#- 11. INTERFACES:
#---1----|----2----|----3----|----4----|----5----|----6----|----7----|----8----|----9----|---10----|
/INTER/TYPE19/5
surface to surface contact
#  Slav_id   Mast_id      Istf      Ithe      Igap     Iedge      Ibag      Idel     Icurv
        21        22         4         1         0         1         0         0         0
#          Gap_scale             Gap_max
                   0                   0
#              Stmin               Stmax          %mesh_size               dtmin  Irem_gap   Irem_i2
                   0                   0                   0                   0         0         0
#              Stfac                Fric             Gap_min              Tstart               Tstop
                   0                  .3                   0                   0                   0
#      IBC                        Inacti                VisS                VisF              Bumult
       000                             0                   0                   0                   0
#    Ifric    Ifiltr               Xfreq     Iform   Isensor                                 fric_ID
         0         0                   0         2         0                                       0
#               Kthe   fct_IDK                          Tint Ithe_form             AscaleK
                1E-4         0                           300         1                   0
#               Frad                Drad              Fheats              Fheatm
                   0                   0                  .5                  .5
/SURF/PART/EXT/21
disc surface
         1
/SURF/PART/EXT/22
pad surface
         2
#---1----|----2----|----3----|----4----|----5----|----6----|----7----|----8----|----9----|---10----|
#- 12. RIGID BODIES:
#---1----|----2----|----3----|----4----|----5----|----6----|----7----|----8----|----9----|---10----|
/RBODY/2
rigid body1
#     RBID     ISENS     NSKEW    ISPHER                MASS   Gnod_id     IKREM      ICOG   Surf_id
      1436         0         0         0                   0        14         0         0         0
#                Jxx                 Jyy                 Jzz
                   0                   0                   0
#                Jxy                 Jyz                 Jxz
                   0                   0                   0
#  Ioptoff   Iexpams
         0         0
/GRNOD/NODE/14
rigid body1
        91        92        93        94        99       100       103       104       107       108
       111       112       115       117       119       121       122       125       127       129
       131       132       135       137       139       141       142       145       147       149
#---1----|----2----|----3----|----4----|----5----|----6----|----7----|----8----|----9----|---10----|
/RBODY/3
rigid body2
#     RBID     ISENS     NSKEW    ISPHER                MASS   Gnod_id     IKREM      ICOG   Surf_id
      1437         0         0         0                   0        18         0         0         0
#                Jxx                 Jyy                 Jzz
                   0                   0                   0
#                Jxy                 Jyz                 Jxz
                   0                   0                   0
#  Ioptoff   Iexpams
         0         0
/GRNOD/NODE/18
rigid body2
        61        62        63        64        65        66        67        68        69        70
        71        72        73        74        75        76        77        78        79        80
        81        82        83        84        85        86        87        88        89        90
#---1----|----2----|----3----|----4----|----5----|----6----|----7----|----8----|----9----|---10----|
/RBODY/4
RBODY2
#     RBID     ISENS     NSKEW    ISPHER                MASS   Gnod_id     IKREM      ICOG   Surf_id
      1438         0         0         0                   0        28         0         3         0
#                Jxx                 Jyy                 Jzz
                   0                   0                   0
#                Jxy                 Jyz                 Jxz
                   0                   0                   0
#  Ioptoff   Iexpams
         0         0
/GRNOD/NODE/28
New GRNOD 28
       182       183       202       203       204       205       206       207       208       209
       210       211       212       213       214       215       216       217       218       411
       412       413       414       415       416       417       418       419       420       421
       422       423       424       425       426       427       619       620       631       642
       653       664       675       686       697       708       719       730       741       752
       763       774       785       796       807       828       829       840       851       862
       873       884       895       906       917       928       939       950       961       972
       983       994      1005      1016      1038      1049      1060      1071      1082      1093
      1104      1115      1126      1137      1148      1159      1170      1181      1192      1203
      1214      1247      1258      1269      1280      1291      1302      1313      1324      1335
      1346      1357      1368      1379      1390      1401      1412      1423
#---1----|----2----|----3----|----4----|----5----|----6----|----7----|----8----|----9----|---10----|
#- 13. NODE GROUPS:
#---1----|----2----|----3----|----4----|----5----|----6----|----7----|----8----|----9----|---10----|
/GRNOD/SURF/31
disc nodes
        21
#---1----|----2----|----3----|----4----|----5----|----6----|----7----|----8----|----9----|---10----|
/GRNOD/SURF/32
pad nodes
        22
#---1----|----2----|----3----|----4----|----5----|----6----|----7----|----8----|----9----|---10----|
#- 14. TIME HISTORIES:
#---1----|----2----|----3----|----4----|----5----|----6----|----7----|----8----|----9----|---10----|
/TH/NODE/1
node 0
#     var1      var2      var3      var4      var5      var6      var7      var8      var9     var10
A         ARX       ARY       ARZ       DEF       VR        VRX       VRY       VRZ       
#    NODid     Iskew                                           NODname
       193         0node 0_group_0                                                                  
#---1----|----2----|----3----|----4----|----5----|----6----|----7----|----8----|----9----|---10----|
/TH/NODE/2
masternode
#     var1      var2      var3      var4      var5      var6      var7      var8      var9     var10
ARX       ARY       ARZ       DEF       VR        VRX       VRY       VRZ       
#    NODid     Iskew                                           NODname
      1438         0masternode_group_1                                                              
#---1----|----2----|----3----|----4----|----5----|----6----|----7----|----8----|----9----|---10----|
/TH/RBODY/3
rigid body
#     var1      var2      var3      var4      var5      var6      var7      var8      var9     var10
DEF       R         RX        RY        RZ        
#     Obj1      Obj2      Obj3      Obj4      Obj5      Obj6      Obj7      Obj8      Obj9     Obj10
         4
#---1----|----2----|----3----|----4----|----5----|----6----|----7----|----8----|----9----|---10----|
/TH/INTER/4
interface forces
#     var1      var2      var3      var4      var5      var6      var7      var8      var9     var10
DEF       
#     Obj1      Obj2      Obj3      Obj4      Obj5      Obj6      Obj7      Obj8      Obj9     Obj10
         5
#---1----|----2----|----3----|----4----|----5----|----6----|----7----|----8----|----9----|---10----|
/END
#---1----|----2----|----3----|----4----|----5----|----6----|----7----|----8----|----9----|---10----|
