#RADIOSS STARTER
##========================================================================================
##
## Radioss Input Deck Generated by HyperMesh Version  : 2023.1.0.21
## Generated using HyperMesh-Radioss Template Version : 2023.1.0.21-40550
## Date: 06-12-2024   Time: 09:51:06
##
##========================================================================================
##
##--------------------------------------------------------------------------------------------------
#Runname                                                                        
#Runname                                                                        
#Runname                                                                        
#Runname                                                                        
#Runname                                                                        
#Runname                                                                        
#Runname                                                                        
#Runname                                                                        
#Runname                                                                        
#Runname                                                                        
#Runname                                                                        
#Runname                                                                        
#Runname                                                                        
#Runname                                                                        
#Runname                                                                        
/BEGIN
#Runname                                                                        
includefile1                                                                    
#   Invers      Irun
      2023         0
#    Input_mass_unit   Input_length_unit     Input_time_unit
                  kg                  mm                  ms
#     Work_mass_unit    Work_length_unit      Work_time_unit
                  kg                  mm                  ms
#---1----|----2----|----3----|----4----|----5----|----6----|----7----|----8----|----9----|---10----|
#   Invers      Irun
#    Input_mass_unit   Input_length_unit     Input_time_unit
#     Work_mass_unit    Work_length_unit      Work_time_unit
#   Invers      Irun
#    Input_mass_unit   Input_length_unit     Input_time_unit
#     Work_mass_unit    Work_length_unit      Work_time_unit
#   Invers      Irun
#    Input_mass_unit   Input_length_unit     Input_time_unit
#     Work_mass_unit    Work_length_unit      Work_time_unit
#   Invers      Irun
#    Input_mass_unit   Input_length_unit     Input_time_unit
#     Work_mass_unit    Work_length_unit      Work_time_unit
#   Invers      Irun
#    Input_mass_unit   Input_length_unit     Input_time_unit
#     Work_mass_unit    Work_length_unit      Work_time_unit
#   Invers      Irun
#    Input_mass_unit   Input_length_unit     Input_time_unit
#     Work_mass_unit    Work_length_unit      Work_time_unit
#   Invers      Irun
#    Input_mass_unit   Input_length_unit     Input_time_unit
#     Work_mass_unit    Work_length_unit      Work_time_unit
#   Invers      Irun
#    Input_mass_unit   Input_length_unit     Input_time_unit
#     Work_mass_unit    Work_length_unit      Work_time_unit
#   Invers      Irun
#    Input_mass_unit   Input_length_unit     Input_time_unit
#     Work_mass_unit    Work_length_unit      Work_time_unit
#   Invers      Irun
#    Input_mass_unit   Input_length_unit     Input_time_unit
#     Work_mass_unit    Work_length_unit      Work_time_unit
#   Invers      Irun
#    Input_mass_unit   Input_length_unit     Input_time_unit
#     Work_mass_unit    Work_length_unit      Work_time_unit
#   Invers      Irun
#    Input_mass_unit   Input_length_unit     Input_time_unit
#     Work_mass_unit    Work_length_unit      Work_time_unit
#   Invers      Irun
#    Input_mass_unit   Input_length_unit     Input_time_unit
#     Work_mass_unit    Work_length_unit      Work_time_unit
#   Invers      Irun
#    Input_mass_unit   Input_length_unit     Input_time_unit
#     Work_mass_unit    Work_length_unit      Work_time_unit
#   Invers      Irun
#    Input_mass_unit   Input_length_unit     Input_time_unit
#     Work_mass_unit    Work_length_unit      Work_time_unit
##HWCOLOR materials 1 11
/MAT/PLAS_JOHNS/1
Steel                                                                                               
#              RHO_I
7.80000000000000E-06
#                  E                  Nu     Iflag
               210.0                 0.3         0
#                  a                   b                   n           EPS_p_max            SIG_max0
                0.27                0.45                 0.6                 0.0                 0.0
#                  c           EPS_DOT_0       ICC   Fsmooth               F_cut               Chard
                 0.1                 1.0         0         0                 0.0                 0.0
#                  m              T_melt              rhoC_p                 T_r
                 0.0                 0.0                 0.0                 0.0
#---1----|----2----|----3----|----4----|----5----|----6----|----7----|----8----|----9----|---10----|
##HWCOLOR failures 1 11
##HMNAME FAIL_MODEL Failure_JOHNSON_0  11
/FAIL/JOHNSON/1
#                 D1                  D2                  D3                  D4                  D5
                -0.1                 0.6                -1.2                                        
#      EPSILON_DOT_0  IFAIL_SH  IFAIL_SO                                    DADV               IXFEM
                                                                                                    
#  FAIL_ID
         1
#---1----|----2----|----3----|----4----|----5----|----6----|----7----|----8----|----9----|---10----|
##HWCOLOR properties 100001 11
/PROP/SOLID/100001
Foam                                                                                                
#   Isolid    Ismstr      Iale     Icpre  Itetra10     Inpts   Itetra4    Iframe                  Dn
        24         0                  -1                   0         0        -1                 0.0
#                 qa                  qb                   h              Lambda                  Mu
                 1.1                0.05                 0.1                                        
#         deltaT_min            Vdef_min            Vdef_max             ASP_max             COL_min
                 0.0                 0.0                                                            
#---1----|----2----|----3----|----4----|----5----|----6----|----7----|----8----|----9----|---10----|
##HWCOLOR curves 5 5
/FUNCT/5
#title                                                                                              
curve2 MATLAW36                                                                                     
#                  X                   Y
                 0.0             389.674
          0.00326906              400.23
          0.00693011             409.589
           0.0104447             418.254
           0.0118464             422.462
           0.0129266             426.827
           0.0136484             433.649
           0.0152255              443.84
           0.0185893             452.254
           0.0218744             469.641
           0.0253395             483.106
           0.0287915             494.684
           0.0322314             505.958
           0.0356586             515.583
           0.0390739             524.886
           0.0424768             533.055
           0.0458683             541.267
           0.0492477             548.545
           0.0526155             555.479
           0.0559716             561.572
# ... 46 like lines cut
#enddata
/END
