#RADIOSS STARTER
##========================================================================================
##
## Radioss Input Deck Generated by HyperMesh Version  : 2020.0.0.71
## Generated using HyperMesh-Radioss Template Version : 2020.0.0.71
## Date: 07-02-2020   Time: 08:18:51
##
##========================================================================================
##
/BEGIN
mat_law51.inc                                                                   
      2020         0
                  kg                  mm                  ms
                  kg                  mm                  ms
#---1----|----2----|----3----|----4----|----5----|----6----|----7----|----8----|----9----|---10----|
#---1----|----2----|----3----|----4----|----5----|----6----|----7----|----8----|----9----|---10----|
##HWCOLOR materials 1 3
/MAT/LAW51/1
non reflecting BC

#    Iform
         6
#               Pext                           Tcp            Tc_alpha
                 0.0                           0.0                 0.0
#            ALPHA_1              RHO_01                E_01              P_min1                P_01
                 0.0                 0.0                 0.0                 0.0                 0.0
#             SSP_01
                 0.0
#    BLANK CARD

#            ALPHA_1              RHO_01                E_01              P_min1                P_01
                 0.0                 0.0                 0.0                 0.0                 0.0
#             SSP_01
                 0.0
#    BLANK CARD

#            ALPHA_1              RHO_01                E_01              P_min1                P_01
                 0.0                 0.0                 0.0                 0.0                 0.0
#             SSP_01
                 0.0
#    BLANK CARD

/ALE/MAT/1
#                Flrd
                 0.0
#---1----|----2----|----3----|----4----|----5----|----6----|----7----|----8----|----9----|---10----|
##HWCOLOR materials 2 4
/MAT/LAW51/2
waterbc                                                                                             

#    Iform
         6
#               Pext                           Tcp            Tc_alpha
                 0.0                           0.0                 0.0
#            ALPHA_1              RHO_01                E_01              P_min1                P_01
                 0.0                 0.0                 0.0                 0.0                 0.0
#             SSP_01
                 0.0
#    BLANK CARD

#            ALPHA_1              RHO_01                E_01              P_min1                P_01
                 0.0                 0.0                 0.0                 0.0                 0.0
#             SSP_01
                 0.0
#    BLANK CARD

#            ALPHA_1              RHO_01                E_01              P_min1                P_01
                 0.0                 0.0                 0.0                 0.0                 0.0
#             SSP_01
                 0.0
#    BLANK CARD

/ALE/MAT/2
#                Flrd
                 0.0
#---1----|----2----|----3----|----4----|----5----|----6----|----7----|----8----|----9----|---10----|
#---1----|----2----|----3----|----4----|----5----|----6----|----7----|----8----|----9----|---10----|
/MAT/HYD_VISC/8
AIR
#              RHO_I               RHO_0
             1.22E-9                   0
#                Knu                Pmin
                   0                   0
/EOS/IDEAL-GAS/8
EoS for Air at atmospheric pressure
#              GAMMA                  P0                 Psh                  T0               RHO_0
                 1.4                1E-4                   0                 300             1.22E-9
#---1----|----2----|----3----|----4----|----5----|----6----|----7----|----8----|----9----|---10----|
/MAT/HYD_VISC/9
water
#              RHO_I               RHO_0
&Rho                                   0
#                Knu                Pmin
                   0                   0
/EOS/STIFF-GAS/9
STIFF_GAS_WATER
#              GAMMA                  P0                 Psh                  P*               RHO_0
                 6.1                1E-4                   0              .36885                   0
#---1----|----2----|----3----|----4----|----5----|----6----|----7----|----8----|----9----|---10----|
/MAT/LAW51/7
99.99% Water-MULTIMAT:AIR+WATER 

#    Iform
        12
#                                     Nu              Nu_Vol
                                       0                   0
#   MatID1          ALPHA_MAT1
         9               .9999
#   MatID2          ALPHA_MAT2
         8                1E-4
/ALE/MAT/7
#     Modif. factor.
                   0
#---1----|----2----|----3----|----4----|----5----|----6----|----7----|----8----|----9----|---10----|
/MAT/LAW51/6
air LAW51

#    Iform
        12
#                                     Nu              Nu_Vol
                                       0                   0
#   MatID1          ALPHA_MAT1
         9                 0.0
#   MatID2          ALPHA_MAT2
         8                 1.0
/ALE/MAT/6
#     Modif. factor.
                   0
#---1----|----2----|----3----|----4----|----5----|----6----|----7----|----8----|----9----|---10----|
#-  2. MATERIALS:
#enddata
/END
