#RADIOSS STARTER
##========================================================================================
##
## Radioss Input Deck Generated by HyperMesh Version  : 2019.1.1-HWDesktop
## Generated using HyperMesh-Radioss Template Version : 2019.1.1_hotfix-HWDesktop
## Date: 02-05-2020   Time: 08:50:14
##
##========================================================================================
##
##
/BEGIN
rdv_0010_beam_bending
      2020         0
                  Mg                  mm                   s
                  Mg                  mm                   s
##
##--------------------------------------------------------------------------------------------------
##--------------------------------------------------------------------------------------------------
## Material Law No 1. ELASTIC
##--------------------------------------------------------------------------------------------------
#                  E                  nu
/MAT/ELAST/1
Steel                                                                                               
#              RHO_I
7.75000000000000E-09
            193000.0                 0.0
##--------------------------------------------------------------------------------------------------
##--------------------------------------------------------------------------------------------------
## NODES
##--------------------------------------------------------------------------------------------------
/NODE
      2193                 0.0                50.8                 0.0
      2198                 0.0                 0.0                 0.0
      2200                 0.0                 0.0                25.4
      2205                 0.0                50.8                25.4
      2211                 0.0                 0.0                12.7
      2212                 0.0                12.7                 0.0
      2213                 0.0                25.4                 0.0
      2214                 0.0                38.1                 0.0
      2215                 0.0                50.8                12.7
      2216                 0.0                38.1                25.4
      2217                 0.0                25.4                25.4
      2218                 0.0                12.7                25.4
      2219                 0.0                25.4                12.7
      2220                 0.0                12.7                12.7
      2221                 0.0                38.1                12.7
      2222                12.7                25.4                 0.0
      2223                12.7                25.4                12.7
      2224                12.7                12.7                12.7
      2225                12.7                12.7                 0.0
      2226                12.7                 0.0                12.7
# ... 595 like lines cut
##--------------------------------------------------------------------------------------------------
## Boundary Conditions
##--------------------------------------------------------------------------------------------------
##HWCOLOR loadcollectors 1 49
/BCS/1
SPC                                                                                                 
##  Tra rot   skew_ID  grnod_ID
   111 111         0         1
/GRNOD/NODE/1
BCS Nodes                                                                                           
      2193      2198      2200      2205      2211      2212      2213      2214      2215      2216
      2217      2218      2219      2220      2221
##--------------------------------------------------------------------------------------------------
## Solid Elements (Hexaedron)
##--------------------------------------------------------------------------------------------------
/BRICK/1
       511      2213      2219      2220      2212      2222      2223      2224      2225
       512      2212      2220      2211      2198      2225      2224      2226      2227
       513      2219      2217      2218      2220      2223      2228      2229      2224
       514      2220      2218      2200      2211      2224      2229      2230      2226
       515      2193      2215      2221      2214      2231      2232      2233      2234
       516      2214      2221      2219      2213      2234      2233      2223      2222
       517      2215      2205      2216      2221      2232      2235      2236      2233
       518      2221      2216      2217      2219      2233      2236      2228      2223
       519      2222      2223      2224      2225      2237      2238      2239      2240
       520      2225      2224      2226      2227      2240      2239      2241      2242
       521      2223      2228      2229      2224      2238      2243      2244      2239
       522      2224      2229      2230      2226      2239      2244      2245      2241
       523      2231      2232      2233      2234      2246      2247      2248      2249
       524      2234      2233      2223      2222      2249      2248      2238      2237
       525      2232      2235      2236      2233      2247      2250      2251      2248
       526      2233      2236      2228      2223      2248      2251      2243      2238
       527      2237      2238      2239      2240      2252      2253      2254      2255
       528      2240      2239      2241      2242      2255      2254      2256      2257
       529      2238      2243      2244      2239      2253      2258      2259      2254
       530      2239      2244      2245      2241      2254      2259      2260      2256
# ... 300 like lines cut
##--------------------------------------------------------------------------------------------------
## Quad Shell Elements
##--------------------------------------------------------------------------------------------------
/SHELL/2
       128      2351      2366      2367      2352                                                  
       131      2352      2367      2370      2355                                                  
##--------------------------------------------------------------------------------------------------
## Shell Property Set (pid 1)
##--------------------------------------------------------------------------------------------------
/PROP/SHELL/2
shell                                                                                               
        24                                                                      
                                                                                                    
         1                          0.01                                                  
##--------------------------------------------------------------------------------------------------
## General Solid Property Set (pid 14)
##--------------------------------------------------------------------------------------------------
/PROP/SOLID/1
steel_prop                                                                                          
        24                                                                     0                    
                                                                                                    
                                        
##--------------------------------------------------------------------------------------------------
## Functions
##--------------------------------------------------------------------------------------------------
##HWCOLOR curves 2 11
/FUNCT_SMOOTH/3
smooth function

                 0.0                 0.0
                0.15              0.3447
                1.00              0.3447
##--------------------------------------------------------------------------------------------------
## Pressure Loads
##--------------------------------------------------------------------------------------------------
##HWCOLOR loadcollectors 2 6
/PLOAD/2
pressure                                                                                            
##  surf_ID  functIDT sensor_ID                                          Ascale_x
         1         3         0                                                                  -1.0
##------------------------------------------------------------------------------
## Surf Segments
##------------------------------------------------------------------------------
/SURF/SEG/1
Contact for pressure                                                                                
         1      2193      2215      2232      2231
         2      2215      2205      2235      2232
         3      2232      2235      2250      2247
         4      2247      2250      2265      2262
         5      2262      2265      2280      2277
         6      2277      2280      2295      2292
         7      2292      2295      2310      2307
         8      2307      2310      2325      2322
         9      2322      2325      2340      2337
        10      2337      2340      2355      2352
        11      2352      2355      2370      2367
        12      2367      2370      2385      2382
        13      2382      2385      2400      2397
        14      2397      2400      2415      2412
        15      2412      2415      2430      2427
        16      2427      2430      2445      2442
        17      2442      2445      2460      2457
        18      2457      2460      2475      2472
        19      2472      2475      2490      2487
        20      2487      2490      2505      2502
# ... 60 like lines cut
##--------------------------------------------------------------------------------------------------
## Sets
##--------------------------------------------------------------------------------------------------
##--------------------------------------------------------------------------------------------------
## Parts
##--------------------------------------------------------------------------------------------------
##HWCOLOR components 1 4
/PART/1
beam                                                                                                
         1         1                              
##HWCOLOR components 2 3
/PART/2
shell                                                                                               
         2         1                              
##--------------------------------------------------------------------------------------------------
## Time History - Nodes
##--------------------------------------------------------------------------------------------------
/TH/NODE/1
end displacement                                                                                    
DEF       
      2808         0                                                                                
##--------------------------------------------------------------------------------------------------
## Time History - Elems
##--------------------------------------------------------------------------------------------------
##--------------------------------------------------------------------------------------------------
## Time History - Parts
##--------------------------------------------------------------------------------------------------
##--------------------------------------------------------------------------------------------------
## Time History - Frames
##--------------------------------------------------------------------------------------------------
##--------------------------------------------------------------------------------------------------
## Time History - Interfaces and Rwalls
##--------------------------------------------------------------------------------------------------
##--------------------------------------------------------------------------------------------------
## Time History - Cyl Joints
##--------------------------------------------------------------------------------------------------
##--------------------------------------------------------------------------------------------------
## Time History - Accelerometer
##--------------------------------------------------------------------------------------------------
##--------------------------------------------------------------------------------------------------
## Time History - Monv and Sections
##--------------------------------------------------------------------------------------------------
##--------------------------------------------------------------------------------------------------
## Time History - Subsets
##--------------------------------------------------------------------------------------------------
##--------------------------------------------------------------------------------------------------
## Time History - Control vols
##--------------------------------------------------------------------------------------------------
##--------------------------------------------------------------------------------------------------
## Time History - Cross Sections
##--------------------------------------------------------------------------------------------------
##--------------------------------------------------------------------------------------------------
## Time History - Rigid Walls
##--------------------------------------------------------------------------------------------------
##--------------------------------------------------------------------------------------------------
## Time History - Load Collectors
##--------------------------------------------------------------------------------------------------
##--------------------------------------------------------------------------------------------------
## Time History - Sets
##--------------------------------------------------------------------------------------------------
##--------------------------------------------------------------------------------------------------
## Time History - Element Clusters
##--------------------------------------------------------------------------------------------------
##------------------------------------------------------------------------------
## End Of Radioss Block Deck
##------------------------------------------------------------------------------
/END
