#RADIOSS STARTER
##========================================================================================
##
## Radioss Input Deck Generated by HyperMesh Version  : 2022.2.0.27
## Generated using HyperMesh-Radioss Template Version : 2022.2.0.27
## Date: 03-15-2023   Time: 16:03:38
##
##========================================================================================
##
##--------------------------------------------------------------------------------------------------
#--------------------------------------------------------------------------------------------------|
##
/BEGIN
#Runname                                                                        
rdv_0530_wave_propagation                                                       
#   Invers      Irun
      2023         0
#    Input_mass_unit   Input_length_unit     Input_time_unit
                  Mg                  mm                   s
#     Work_mass_unit    Work_length_unit      Work_time_unit
                  Mg                  mm                   s
#---1----|----2----|----3----|----4----|----5----|----6----|----7----|----8----|----9----|---10----|
/TITLE
                                                                                                    
##
#---1----|----2----|----3----|----4----|----5----|----6----|----7----|----8----|----9----|---10----|
/NODE
#  node_ID                  Xc                  Yc                  Zc
         1                25.4                 0.0                 0.0
         2                 0.0                25.4                 0.0
         3                 0.0                 0.0                25.4
         4            17.96051            17.96051                 0.0
         5                 0.0            17.96051            17.96051
         6            17.96051                 0.0            17.96051
         7            14.66469            14.66469            14.66469
        10            25.24029            2.843898                 0.0
        11            24.76316            5.652032                 0.0
        12            23.97463            8.389088                 0.0
        13             22.8846            11.02064                 0.0
        14            21.50679            13.51361                 0.0
        15            19.85852            15.83664                 0.0
        18            15.83664            19.85852                 0.0
        19            13.51361            21.50679                 0.0
        20            11.02064             22.8846                 0.0
        21            8.389088            23.97463                 0.0
        22            5.652032            24.76316                 0.0
        23            2.843898            25.24029                 0.0
        26                 0.0            25.24029            2.843898
# ... 4205 like lines cut
#---1----|----2----|----3----|----4----|----5----|----6----|----7----|----8----|----9----|---10----|
# BRICK elements of /PART/4/auto1:
/BRICK/4
# brick_ID  node_ID1  node_ID2  node_ID3  node_ID4  node_ID5  node_ID6  node_ID7  node_ID8
      6103        69        68        98        92      5777      5780      5779      5778
      6104      5777      5780      5779      5778      5781      5784      5783      5782
      6105      5781      5784      5783      5782      5785      5788      5787      5786
      6106      5785      5788      5787      5786      5789      5792      5791      5790
      6107      5789      5792      5791      5790      5793      5796      5795      5794
      6108      5793      5796      5795      5794      5797      5800      5799      5798
      6109      5797      5800      5799      5798      5801      5804      5803      5802
      6110      5801      5804      5803      5802      5805      5808      5807      5806
      6111      5805      5808      5807      5806      5809      5812      5811      5810
      6112      5809      5812      5811      5810      5813      5816      5815      5814
      6113      5813      5816      5815      5814      5817      5820      5819      5818
      6114      5817      5820      5819      5818      5821      5824      5823      5822
      6115      5821      5824      5823      5822      5825      5828      5827      5826
      6116      5825      5828      5827      5826      5829      5832      5831      5830
      6117      5829      5832      5831      5830      5833      5836      5835      5834
      6118      5833      5836      5835      5834      5837      5840      5839      5838
      6119      5837      5840      5839      5838      5841      5844      5843      5842
      6120      5841      5844      5843      5842      5845      5848      5847      5846
      6121      5845      5848      5847      5846      5849      5852      5851      5850
      6122      5849      5852      5851      5850      5853      5856      5855      5854
# ... 3508 like lines cut
#---1----|----2----|----3----|----4----|----5----|----6----|----7----|----8----|----9----|---10----|
##HWCOLOR components 4 4
/PART/4
#part_title                                                                                         
Steel Part                                                                                            
#  prop_ID    mat_ID                         Thick
         1         1                              
#---1----|----2----|----3----|----4----|----5----|----6----|----7----|----8----|----9----|---10----|
##HWCOLOR materials 1 3
/MAT/ELAST/1
Steel                                                                                               
#              RHO_I               RHO_O
7.75000000000000E-09                 0.0
#                  E                  nu
            193000.0                 0.3
#---1----|----2----|----3----|----4----|----5----|----6----|----7----|----8----|----9----|---10----|
##HWCOLOR properties 1 3
/PROP/SOLID/1
SLBody_1_3                                                                                          
#   Isolid    Ismstr               Icpre  Itetra10     Inpts   Itetra4    Iframe                  Dn
        24         2         0         0                   0         0         0                 0.0
#                 qa                  qb                   h              Lambda                  Mu
                 0.0                 0.0                 0.0                 0.0                 0.0
#         deltaT_min
                 0.0
#---1----|----2----|----3----|----4----|----5----|----6----|----7----|----8----|----9----|---10----|
##HMNAME LOADCOLS          1misc1                                                                   
##HWCOLOR loadcollectors 1 11
/BCS/6
Y cons                                                                                              
#  Tra rot   skew_ID  grnod_ID
   010 000         0         7
#---1----|----2----|----3----|----4----|----5----|----6----|----7----|----8----|----9----|---10----|
##HMNAME LOADCOLS          1misc1                                                                   
##HWCOLOR loadcollectors 1 11
/BCS/7
X cons                                                                                              
#  Tra rot   skew_ID  grnod_ID
   100 000         0         8
#---1----|----2----|----3----|----4----|----5----|----6----|----7----|----8----|----9----|---10----|
##HMNAME LOADCOLS          1misc1                                                                   
##HWCOLOR loadcollectors 1 11
/BCS/8
Z cons                                                                                              
#  Tra rot   skew_ID  grnod_ID
   001 000         0         9
#---1----|----2----|----3----|----4----|----5----|----6----|----7----|----8----|----9----|---10----|
##HMNAME LOADCOLS          2Bcs                                                                     
##HWCOLOR loadcollectors 2 5
/BCS/1
XY cons                                                                                             
#  Tra rot   skew_ID  grnod_ID
   110 000         0        34
#---1----|----2----|----3----|----4----|----5----|----6----|----7----|----8----|----9----|---10----|
##HMNAME LOADCOLS          3Bcs.1                                                                   
##HWCOLOR loadcollectors 3 7
/BCS/2
XZ cons                                                                                             
#  Tra rot   skew_ID  grnod_ID
   101 000         0        35
#---1----|----2----|----3----|----4----|----5----|----6----|----7----|----8----|----9----|---10----|
##HMNAME LOADCOLS          4Bcs.2                                                                   
##HWCOLOR loadcollectors 4 17
/BCS/3
YZ cons                                                                                             
#  Tra rot   skew_ID  grnod_ID
   011 000         0        36
#---1----|----2----|----3----|----4----|----5----|----6----|----7----|----8----|----9----|---10----|
##HMNAME LOADCOLS          1misc1                                                                   
##HWCOLOR loadcollectors 1 11
/IMPDISP/9
Q1                                                                                                  
#   Ifunct       DIR     Iskew   Isensor   Gnod_id     Frame     Icoor
         1         X        12         0        11                   1
#            Scale_x             Scale_y              Tstart               Tstop
                 1.0                 1.0                 0.01.00000000000000E+30
#---1----|----2----|----3----|----4----|----5----|----6----|----7----|----8----|----9----|---10----|
##HMNAME LOADCOLS          1misc1                                                                   
##HWCOLOR loadcollectors 1 11
/IMPDISP/10
Q1-1                                                                                                
#   Ifunct       DIR     Iskew   Isensor   Gnod_id     Frame     Icoor
         1         X        18         0        12                   1
#            Scale_x             Scale_y              Tstart               Tstop
                 1.0                 1.0                 0.01.00000000000000E+30
#---1----|----2----|----3----|----4----|----5----|----6----|----7----|----8----|----9----|---10----|
##HMNAME LOADCOLS          1misc1                                                                   
##HWCOLOR loadcollectors 1 11
/IMPDISP/11
Q1-2                                                                                                
#   Ifunct       DIR     Iskew   Isensor   Gnod_id     Frame     Icoor
         1         X        17         0        13                   1
#            Scale_x             Scale_y              Tstart               Tstop
                 1.0                 1.0                 0.01.00000000000000E+30
#---1----|----2----|----3----|----4----|----5----|----6----|----7----|----8----|----9----|---10----|
##HMNAME LOADCOLS          1misc1                                                                   
##HWCOLOR loadcollectors 1 11
/IMPDISP/12
Q1-3                                                                                                
#   Ifunct       DIR     Iskew   Isensor   Gnod_id     Frame     Icoor
         1         X        16         0        14                   1
#            Scale_x             Scale_y              Tstart               Tstop
                 1.0                 1.0                 0.01.00000000000000E+30
#---1----|----2----|----3----|----4----|----5----|----6----|----7----|----8----|----9----|---10----|
##HMNAME LOADCOLS          1misc1                                                                   
##HWCOLOR loadcollectors 1 11
/IMPDISP/13
Q1-4                                                                                                
#   Ifunct       DIR     Iskew   Isensor   Gnod_id     Frame     Icoor
         1         X        15         0        15                   1
#            Scale_x             Scale_y              Tstart               Tstop
                 1.0                 1.0                 0.01.00000000000000E+30
#---1----|----2----|----3----|----4----|----5----|----6----|----7----|----8----|----9----|---10----|
##HMNAME LOADCOLS          1misc1                                                                   
##HWCOLOR loadcollectors 1 11
/IMPDISP/14
Q1-5                                                                                                
#   Ifunct       DIR     Iskew   Isensor   Gnod_id     Frame     Icoor
         1         X        14         0        16                   1
#            Scale_x             Scale_y              Tstart               Tstop
                 1.0                 1.0                 0.01.00000000000000E+30
#---1----|----2----|----3----|----4----|----5----|----6----|----7----|----8----|----9----|---10----|
##HMNAME LOADCOLS          1misc1                                                                   
##HWCOLOR loadcollectors 1 11
/IMPDISP/15
Q1-6                                                                                                
#   Ifunct       DIR     Iskew   Isensor   Gnod_id     Frame     Icoor
         1         X        13         0        17                   1
#            Scale_x             Scale_y              Tstart               Tstop
                 1.0                 1.0                 0.01.00000000000000E+30
#---1----|----2----|----3----|----4----|----5----|----6----|----7----|----8----|----9----|---10----|
##HMNAME LOADCOLS          1misc1                                                                   
##HWCOLOR loadcollectors 1 11
/IMPDISP/16
Q1-7                                                                                                
#   Ifunct       DIR     Iskew   Isensor   Gnod_id     Frame     Icoor
         1         X        11         0        18                   1
#            Scale_x             Scale_y              Tstart               Tstop
                 1.0                 1.0                 0.01.00000000000000E+30
#---1----|----2----|----3----|----4----|----5----|----6----|----7----|----8----|----9----|---10----|
##HMNAME LOADCOLS          1misc1                                                                   
##HWCOLOR loadcollectors 1 11
/IMPDISP/18
Q2-1                                                                                                
#   Ifunct       DIR     Iskew   Isensor   Gnod_id     Frame     Icoor
         1         X        19         0        19                   1
#            Scale_x             Scale_y              Tstart               Tstop
                 1.0                 1.0                 0.01.00000000000000E+30
#---1----|----2----|----3----|----4----|----5----|----6----|----7----|----8----|----9----|---10----|
##HMNAME LOADCOLS          1misc1                                                                   
##HWCOLOR loadcollectors 1 11
/IMPDISP/19
Q2-2                                                                                                
#   Ifunct       DIR     Iskew   Isensor   Gnod_id     Frame     Icoor
         1         X        20         0        20                   1
#            Scale_x             Scale_y              Tstart               Tstop
                 1.0                 1.0                 0.01.00000000000000E+30
#---1----|----2----|----3----|----4----|----5----|----6----|----7----|----8----|----9----|---10----|
##HMNAME LOADCOLS          1misc1                                                                   
##HWCOLOR loadcollectors 1 11
/IMPDISP/20
Q2-3                                                                                                
#   Ifunct       DIR     Iskew   Isensor   Gnod_id     Frame     Icoor
         1         X        21         0        21                   1
#            Scale_x             Scale_y              Tstart               Tstop
                 1.0                 1.0                 0.01.00000000000000E+30
#---1----|----2----|----3----|----4----|----5----|----6----|----7----|----8----|----9----|---10----|
##HMNAME LOADCOLS          1misc1                                                                   
##HWCOLOR loadcollectors 1 11
/IMPDISP/21
Q2-4                                                                                                
#   Ifunct       DIR     Iskew   Isensor   Gnod_id     Frame     Icoor
         1         X        22         0        22                   1
#            Scale_x             Scale_y              Tstart               Tstop
                 1.0                 1.0                 0.01.00000000000000E+30
#---1----|----2----|----3----|----4----|----5----|----6----|----7----|----8----|----9----|---10----|
##HMNAME LOADCOLS          1misc1                                                                   
##HWCOLOR loadcollectors 1 11
/IMPDISP/22
Q2-5                                                                                                
#   Ifunct       DIR     Iskew   Isensor   Gnod_id     Frame     Icoor
         1         X        23         0        23                   1
#            Scale_x             Scale_y              Tstart               Tstop
                 1.0                 1.0                 0.01.00000000000000E+30
#---1----|----2----|----3----|----4----|----5----|----6----|----7----|----8----|----9----|---10----|
##HMNAME LOADCOLS          1misc1                                                                   
##HWCOLOR loadcollectors 1 11
/IMPDISP/23
Q2-6                                                                                                
#   Ifunct       DIR     Iskew   Isensor   Gnod_id     Frame     Icoor
         1         X        24         0        24                   1
#            Scale_x             Scale_y              Tstart               Tstop
                 1.0                 1.0                 0.01.00000000000000E+30
#---1----|----2----|----3----|----4----|----5----|----6----|----7----|----8----|----9----|---10----|
##HMNAME LOADCOLS          1misc1                                                                   
##HWCOLOR loadcollectors 1 11
/IMPDISP/24
Q2-7                                                                                                
#   Ifunct       DIR     Iskew   Isensor   Gnod_id     Frame     Icoor
         1         X        25         0        25                   1
#            Scale_x             Scale_y              Tstart               Tstop
                 1.0                 1.0                 0.01.00000000000000E+30
#---1----|----2----|----3----|----4----|----5----|----6----|----7----|----8----|----9----|---10----|
##HMNAME LOADCOLS          1misc1                                                                   
##HWCOLOR loadcollectors 1 11
/IMPDISP/25
Q2-8                                                                                                
#   Ifunct       DIR     Iskew   Isensor   Gnod_id     Frame     Icoor
         1         X        26         0        26                   1
#            Scale_x             Scale_y              Tstart               Tstop
                 1.0                 1.0                 0.01.00000000000000E+30
#---1----|----2----|----3----|----4----|----5----|----6----|----7----|----8----|----9----|---10----|
##HMNAME LOADCOLS          1misc1                                                                   
##HWCOLOR loadcollectors 1 11
/IMPDISP/26
Q3-1                                                                                                
#   Ifunct       DIR     Iskew   Isensor   Gnod_id     Frame     Icoor
         1         X        27         0        27                   1
#            Scale_x             Scale_y              Tstart               Tstop
                 1.0                 1.0                 0.01.00000000000000E+30
#---1----|----2----|----3----|----4----|----5----|----6----|----7----|----8----|----9----|---10----|
##HMNAME LOADCOLS          1misc1                                                                   
##HWCOLOR loadcollectors 1 11
/IMPDISP/27
Q3-2                                                                                                
#   Ifunct       DIR     Iskew   Isensor   Gnod_id     Frame     Icoor
         1         X        28         0        28                   1
#            Scale_x             Scale_y              Tstart               Tstop
                 1.0                 1.0                 0.01.00000000000000E+30
#---1----|----2----|----3----|----4----|----5----|----6----|----7----|----8----|----9----|---10----|
##HMNAME LOADCOLS          1misc1                                                                   
##HWCOLOR loadcollectors 1 11
/IMPDISP/28
Q3-3                                                                                                
#   Ifunct       DIR     Iskew   Isensor   Gnod_id     Frame     Icoor
         1         X        29         0        29                   1
#            Scale_x             Scale_y              Tstart               Tstop
                 1.0                 1.0                 0.01.00000000000000E+30
#---1----|----2----|----3----|----4----|----5----|----6----|----7----|----8----|----9----|---10----|
##HMNAME LOADCOLS          1misc1                                                                   
##HWCOLOR loadcollectors 1 11
/IMPDISP/29
Q3-4                                                                                                
#   Ifunct       DIR     Iskew   Isensor   Gnod_id     Frame     Icoor
         1         X        30         0        30                   1
#            Scale_x             Scale_y              Tstart               Tstop
                 1.0                 1.0                 0.01.00000000000000E+30
#---1----|----2----|----3----|----4----|----5----|----6----|----7----|----8----|----9----|---10----|
##HMNAME LOADCOLS          1misc1                                                                   
##HWCOLOR loadcollectors 1 11
/IMPDISP/30
Q3-5                                                                                                
#   Ifunct       DIR     Iskew   Isensor   Gnod_id     Frame     Icoor
         1         X        31         0        31                   1
#            Scale_x             Scale_y              Tstart               Tstop
                 1.0                 1.0                 0.01.00000000000000E+30
#---1----|----2----|----3----|----4----|----5----|----6----|----7----|----8----|----9----|---10----|
##HMNAME LOADCOLS          1misc1                                                                   
##HWCOLOR loadcollectors 1 11
/IMPDISP/31
Q3-6                                                                                                
#   Ifunct       DIR     Iskew   Isensor   Gnod_id     Frame     Icoor
         1         X        32         0        32                   1
#            Scale_x             Scale_y              Tstart               Tstop
                 1.0                 1.0                 0.01.00000000000000E+30
#---1----|----2----|----3----|----4----|----5----|----6----|----7----|----8----|----9----|---10----|
##HMNAME LOADCOLS          1misc1                                                                   
##HWCOLOR loadcollectors 1 11
/IMPDISP/32
Q3-7                                                                                                
#   Ifunct       DIR     Iskew   Isensor   Gnod_id     Frame     Icoor
         1         X        33         0        33                   1
#            Scale_x             Scale_y              Tstart               Tstop
                 1.0                 1.0                 0.01.00000000000000E+30
/SKEW/FIX/1
#skew_title                                                                                         
NULL                                                                                                
#                 Ox                  Oy                  Oz
                 0.0                 0.0                 0.0
#                 X1                  Y1                  Z1
                 1.0                 0.0                 0.0
#                 X2                  Y2                  Z2
                 0.0                 1.0                 0.0
/SKEW/FIX/2
#skew_title                                                                                         
NULL                                                                                                
#                 Ox                  Oy                  Oz
                 0.0-3.6441996559056E-05-1.0261857488914E-04
#                 X1                  Y1                  Z1
-1.4347405963377E-06    0.999999999990814.04008978063853E-06
#                 X2                  Y2                  Z2
-4.0400955770989E-06-4.0400955770989E-06   0.999999999983678
/SKEW/FIX/3
#skew_title                                                                                         
NULL                                                                                                
#                 Ox                  Oy                  Oz
             16.8611            8.750218             16.8611
#                 X1                  Y1                  Z1
   0.243595204495507  -0.938788032633902   0.243594758010429
#                 X2                  Y2                  Z2
    0.70710552478929-3.1571657826968E-07  -0.707108037581502
/SKEW/FIX/4
#skew_title                                                                                         
NULL                                                                                                
#                 Ox                  Oy                  Oz
            15.27952            7.072239            19.01787
#                 X1                  Y1                  Z1
   0.164211717623957  -0.960373886453017   0.225203263773237
#                 X2                  Y2                  Z2
   0.781768778882064  -0.012521928132413  -0.623442681953276
/SKEW/FIX/5
#skew_title                                                                                         
NULL                                                                                                
#                 Ox                  Oy                  Oz
             12.6287            9.846099            19.71624
#                 X1                  Y1                  Z1
   0.190165184210583  -0.921579432403313   0.338420673844467
#                 X2                  Y2                  Z2
   0.846542209560076  -0.020649535273856  -0.531920937852721
/SKEW/FIX/6
#skew_title                                                                                         
NULL                                                                                                
#                 Ox                  Oy                  Oz
            10.60439            7.792469            21.72519
#                 X1                  Y1                  Z1
   0.119043278522936  -0.951635751344498   0.283227990497943
#                 X2                  Y2                  Z2
   0.900845932621494  -0.016427069955048  -0.433828027047587
/SKEW/FIX/7
#skew_title                                                                                         
NULL                                                                                                
#                 Ox                  Oy                  Oz
            7.792469            10.60439            21.72519
#                 X1                  Y1                  Z1
   0.123370191892484  -0.908521278820502   0.399210322615501
#                 X2                  Y2                  Z2
   0.943746435748026  -0.016954016762489  -0.330235107655916
/SKEW/FIX/8
#skew_title                                                                                         
NULL                                                                                                
#                 Ox                  Oy                  Oz
            5.405596            8.238355            23.41087
#                 X1                  Y1                  Z1
   0.065386188013574  -0.945910611989215   0.317769980557072
#                 X2                  Y2                  Z2
    0.97490057123161  -0.007363058319145  -0.222518901634151
/SKEW/FIX/9
#skew_title                                                                                         
NULL                                                                                                
#                 Ox                  Oy                  Oz
             2.61837            10.98036             22.7538
#                 X1                  Y1                  Z1
   0.043973253996438  -0.901717832827872   0.430082902349269
#                 X2                  Y2                  Z2
    0.99369957361687  -0.004945083510259  -0.111967421791911
/SKEW/FIX/10
#skew_title                                                                                         
NULL                                                                                                
#                 Ox                  Oy                  Oz
                 0.0            8.389088            23.97463
#                 X1                  Y1                  Z1
7.80036000253949E-07  -0.943883530838595   0.330278488871222
#                 X2                  Y2                  Z2
   0.999999999989157-7.8004582939302E-07-4.5909996048823E-06
/SKEW/FIX/11
#skew_title                                                                                         
NULL                                                                                                
#                 Ox                  Oy                  Oz
-1.1661163230769E-04                 0.0-5.2786417112927E-05
#                 X1                  Y1                  Z1
1.90164698151369E-06  -0.707107820291981    0.70710574207703
#                 X2                  Y2                  Z2
   0.999999999987653-1.9016551117131E-06-4.5909996048754E-06
/SKEW/FIX/12
#skew_title                                                                                         
NULL                                                                                                
#                 Ox                  Oy                  Oz
-1.1661163230769E-04                 0.0-5.2786417112927E-05
#                 X1                  Y1                  Z1
   0.408247117843532  -0.816498152868772   0.408246319192633
#                 X2                  Y2                  Z2
   0.707105524789213-5.6473821327674E-07  -0.707108037581424
/SKEW/FIX/13
#skew_title                                                                                         
NULL                                                                                                
#                 Ox                  Oy                  Oz
-1.1661163230769E-04                 0.0-5.2786417112927E-05
#                 X1                  Y1                  Z1
    0.07046633879348   -0.70972902301524    0.70094165876118
#                 X2                  Y2                  Z2
   0.993641128233476  -0.011919706919237  -0.111960836321746
/SKEW/FIX/14
#skew_title                                                                                         
NULL                                                                                                
#                 Ox                  Oy                  Oz
-1.1661163230769E-04                 0.0-5.2786417112927E-05
#                 X1                  Y1                  Z1
   0.139244953606635  -0.717496192931919   0.682502788289754
#                 X2                  Y2                  Z2
   0.974681030109128  -0.022461660550195  -0.222468791857954
/SKEW/FIX/15
#skew_title                                                                                         
NULL                                                                                                
#                 Ox                  Oy                  Oz
-1.1661163230769E-04                 0.0-5.2786417112927E-05
#                 X1                  Y1                  Z1
   0.204739369451731  -0.730122888058502   0.651922049734184
#                 X2                  Y2                  Z2
   0.943451225210348  -0.030212168687347  -0.330131807786376
/SKEW/FIX/16
#skew_title                                                                                         
NULL                                                                                                
#                 Ox                  Oy                  Oz
-1.1661163230769E-04                 0.0-5.2786417112927E-05
#                 X1                  Y1                  Z1
   0.265512624414286  -0.747133431027354   0.609339546162837
#                 X2                  Y2                  Z2
   0.900456831473835  -0.033664317318043  -0.433640644303104
/SKEW/FIX/17
#skew_title                                                                                         
NULL                                                                                                
#                 Ox                  Oy                  Oz
-1.1661163230769E-04                 0.0-5.2786417112927E-05
#                 X1                  Y1                  Z1
   0.320336082613752  -0.767855249622934   0.554782038103413
#                 X2                  Y2                  Z2
   0.846311958879761  -0.031146052937982  -0.531776260887496
/SKEW/FIX/18
#skew_title                                                                                         
NULL                                                                                                
#                 Ox                  Oy                  Oz
-1.1661163230769E-04                 0.0-5.2786417112927E-05
#                 X1                  Y1                  Z1
   0.368195549053047  -0.791385004800336   0.487997758022204
#                 X2                  Y2                  Z2
   0.781662331181949  -0.020713829312619  -0.623357792352361
/SKEW/FIX/19
#skew_title                                                                                         
NULL                                                                                                
#                 Ox                  Oy                  Oz
-1.1661163230769E-04                 0.0-5.2786417112927E-05
#                 X1                  Y1                  Z1
-7.3992023394697E-07-2.1991015887453E-06   0.999999999997308
#                 X2                  Y2                  Z2
   0.707104485686554  -0.707109076678337-1.0318037774682E-06
/SKEW/FIX/20
#skew_title                                                                                         
NULL                                                                                                
#                 Ox                  Oy                  Oz
-1.1661163230769E-04                 0.0-5.2786417112927E-05
#                 X1                  Y1                  Z1
   0.016193716478644  -0.012916809591105   0.999785436769608
#                 X2                  Y2                  Z2
   0.781661543393652  -0.623358766009086  -0.020714256421235
/SKEW/FIX/21
#skew_title                                                                                         
NULL                                                                                                
#                 Ox                  Oy                  Oz
-1.1661163230769E-04                 0.0-5.2786417112927E-05
#                 X1                  Y1                  Z1
   0.026371266965098  -0.016572759253034   0.999514832270836
#                 X2                  Y2                  Z2
   0.846311395411996  -0.531777135583616  -0.031146429430748
/SKEW/FIX/22
#skew_title                                                                                         
NULL                                                                                                
#                 Ox                  Oy                  Oz
-1.1661163230769E-04                 0.0-5.2786417112927E-05
#                 X1                  Y1                  Z1
   0.030329826037019  -0.014608530947631   0.999433185598776
#                 X2                  Y2                  Z2
   0.900456461231249  -0.433641388600455  -0.033664633067432
/SKEW/FIX/23
#skew_title                                                                                         
NULL                                                                                                
#                 Ox                  Oy                  Oz
-1.1661163230769E-04                 0.0-5.2786417112927E-05
#                 X1                  Y1                  Z1
   0.028516264368344  -0.009980614460602   0.999543500804974
#                 X2                  Y2                  Z2
   0.943451012332213  -0.330132393647011  -0.030212414571125
/SKEW/FIX/24
#skew_title                                                                                         
NULL                                                                                                
#                 Ox                  Oy                  Oz
-1.1661163230769E-04                 0.0-5.2786417112927E-05
#                 X1                  Y1                  Z1
   0.021898178917886  -0.005000352728294   0.999747701289017
#                 X2                  Y2                  Z2
   0.974680933925164  -0.222469196249191   -0.02246182902188
/SKEW/FIX/25
#skew_title                                                                                         
NULL                                                                                                
#                 Ox                  Oy                  Oz
-1.1661163230769E-04                 0.0-5.2786417112927E-05
#                 X1                  Y1                  Z1
   0.011844604632643  -0.001336712506522   0.999928956746814
#                 X2                  Y2                  Z2
   0.993641103939914  -0.111961042805785  -0.011919792569914
/SKEW/FIX/26
#skew_title                                                                                         
NULL                                                                                                
#                 Ox                  Oy                  Oz
-1.1661163230769E-04                 0.0-5.2786417112927E-05
#                 X1                  Y1                  Z1
1.90164788568002E-06-2.0782141285157E-06   0.999999999996032
#                 X2                  Y2                  Z2
   0.999999999987653-4.5910051938808E-06-1.9016574267559E-06
/SKEW/FIX/27
#skew_title                                                                                         
NULL                                                                                                
#                 Ox                  Oy                  Oz
-1.1661163230769E-04                 0.0-5.2786417112927E-05
#                 X1                  Y1                  Z1
-2.0781958571156E-06                 0.0   0.999999999997841
#                 X2                  Y2                  Z2
                 0.0                -1.0                 0.0
/SKEW/FIX/28
#skew_title                                                                                         
NULL                                                                                                
#                 Ox                  Oy                  Oz
-1.1661163230769E-04                 0.0-5.2786417112927E-05
#                 X1                  Y1                  Z1
   -0.00133641824822   0.011842533494506   0.999928981671547
#                 X2                  Y2                  Z2
   0.111956001711094  -0.993641697027596   0.011917701497511
/SKEW/FIX/29
#skew_title                                                                                         
NULL                                                                                                
#                 Ox                  Oy                  Oz
-1.1661163230769E-04                 0.0-5.2786417112927E-05
#                 X1                  Y1                  Z1
  -0.004999736637958   0.021896034602998   0.999747751336414
#                 X2                  Y2                  Z2
   0.222463849086756  -0.974682205724532     0.0224596013648
/SKEW/FIX/30
#skew_title                                                                                         
NULL                                                                                                
#                 Ox                  Oy                  Oz
-1.1661163230769E-04                 0.0-5.2786417112927E-05
#                 X1                  Y1                  Z1
  -0.009979685827805   0.028514145597409    0.99954357052188
#                 X2                  Y2                  Z2
   0.330126897785737  -0.943453009287857   0.030210107978176
/SKEW/FIX/31
#skew_title                                                                                         
NULL                                                                                                
#                 Ox                  Oy                  Oz
-1.1661163230769E-04                 0.0-5.2786417112927E-05
#                 X1                  Y1                  Z1
  -0.014607335619515    0.03032781940091   0.999433263963375
#                 X2                  Y2                  Z2
    0.43363590432451  -0.900459189303695   0.033662306504404
/SKEW/FIX/32
#skew_title                                                                                         
NULL                                                                                                
#                 Ox                  Oy                  Oz
-1.1661163230769E-04                 0.0-5.2786417112927E-05
#                 X1                  Y1                  Z1
  -0.016571374254428   0.026369433312474   0.999514903611796
#                 X2                  Y2                  Z2
   0.531771816495543  -0.846314821876262   0.031144139955735
/SKEW/FIX/33
#skew_title                                                                                         
NULL                                                                                                
#                 Ox                  Oy                  Oz
-1.1661163230769E-04                 0.0-5.2786417112927E-05
#                 X1                  Y1                  Z1
  -0.012915333574251   0.016192079953549   0.999785482343809
#                 X2                  Y2                  Z2
   0.623353751273219  -0.781665600805976   0.020712056639489
#---1----|----2----|----3----|----4----|----5----|----6----|----7----|----8----|----9----|---10----|
#---1----|----2----|----3----|----4----|----5----|----6----|----7----|----8----|----9----|---10----|
#---1----|----2----|----3----|----4----|----5----|----6----|----7----|----8----|----9----|---10----|
#---1----|----2----|----3----|----4----|----5----|----6----|----7----|----8----|----9----|---10----|
#---1----|----2----|----3----|----4----|----5----|----6----|----7----|----8----|----9----|---10----|
#---1----|----2----|----3----|----4----|----5----|----6----|----7----|----8----|----9----|---10----|
#---1----|----2----|----3----|----4----|----5----|----6----|----7----|----8----|----9----|---10----|
#---1----|----2----|----3----|----4----|----5----|----6----|----7----|----8----|----9----|---10----|
#---1----|----2----|----3----|----4----|----5----|----6----|----7----|----8----|----9----|---10----|
#---1----|----2----|----3----|----4----|----5----|----6----|----7----|----8----|----9----|---10----|
#---1----|----2----|----3----|----4----|----5----|----6----|----7----|----8----|----9----|---10----|
#---1----|----2----|----3----|----4----|----5----|----6----|----7----|----8----|----9----|---10----|
#---1----|----2----|----3----|----4----|----5----|----6----|----7----|----8----|----9----|---10----|
#---1----|----2----|----3----|----4----|----5----|----6----|----7----|----8----|----9----|---10----|
#---1----|----2----|----3----|----4----|----5----|----6----|----7----|----8----|----9----|---10----|
#---1----|----2----|----3----|----4----|----5----|----6----|----7----|----8----|----9----|---10----|
#---1----|----2----|----3----|----4----|----5----|----6----|----7----|----8----|----9----|---10----|
#---1----|----2----|----3----|----4----|----5----|----6----|----7----|----8----|----9----|---10----|
#---1----|----2----|----3----|----4----|----5----|----6----|----7----|----8----|----9----|---10----|
#---1----|----2----|----3----|----4----|----5----|----6----|----7----|----8----|----9----|---10----|
# ... 14 like lines cut
##HWCOLOR curves 1 4
/FUNCT/1
#title                                                                                              
sin 1000 points                                                                                     
#                  X                   Y
                 0.0                 0.0
1.00000000000000E-08     0.0062831439656
2.00000000000000E-08      0.012566039883
3.00000000000000E-08      0.018848439715
4.00000000000000E-08      0.025130095443
5.00000000000000E-08      0.031410759078
6.00000000000000E-08       0.03769018267
7.00000000000000E-08      0.043968118318
8.00000000000000E-08       0.05024431818
9.00000000000000E-08      0.056518534482
1.00000000000000E-07      0.062790519529
1.10000000000000E-07      0.069060025714
1.20000000000000E-07      0.075326805528
1.30000000000000E-07      0.081590611568
1.40000000000000E-07      0.087851196551
1.50000000000000E-07      0.094108313319
1.60000000000000E-07       0.10036171485
1.70000000000000E-07       0.10661115428
1.80000000000000E-07       0.11285638487
1.90000000000000E-07       0.11909716009
# ... 982 like lines cut
#---1----|----2----|----3----|----4----|----5----|----6----|----7----|----8----|----9----|---10----|
##HWCOLOR curves 2 5
/FUNCT/2
#title                                                                                              
lin                                                                                                 
#                  X                   Y
                 0.0                 0.0
5.00000000000000E-05                 2.0
#---1----|----2----|----3----|----4----|----5----|----6----|----7----|----8----|----9----|---10----|
/GRNOD/NODE/7
#title                                                                                              
grnodnode.6                                                                                         
# item_ID1  item_ID2  item_ID3  item_ID4  item_ID5  item_ID6  item_ID7  item_ID8  item_ID9 item_ID10
         6        42        43        44        45        46        47        50        51        52
        53        54        55      8273      8274      8275      8276      8277      8278      8279
      8280      8281      8282      8283      8284      8285      8286      8287      8288      8289
      8290      8291      8292      8293      8294      8295      8296      8297      8298      8299
      8300      8301      8302      8303      8304      8305      8306      8307      8308      8309
      8310      8311      8312      8313      8314      8315      8316      8317      8318      8319
      8320      8321      8322      8323      8324      8325      8326      8327      8328      8329
      8330      8331      8332      8333      8334      8335      8336      8337      8338      8339
      8340      8341      8342      8343      8344      8345      8346      8347      8348      8349
      8350      8351      8352      8353      8354      8355      8356      8357      8358      8359
      8360      8361      8362      8363      8364      8365      8366      8367      8368      8369
      8370      8371      8372      8373      8374      8375      8376      8377      8378      8379
      8380      8381      8382      8383      8384      8385      8386      8387      8388      8389
      8390      8391      8392      8393      8394      8395      8396      8397      8398      8399
      8400      8401      8402      8403      8404      8405      8406      8407      8408      8409
      8410      8411      8412      8413      8414      8415      8416      8417      8418      8419
      8420      8421      8422      8423      8424      8425      8426      8427      8428      8429
      8430      8431      8432      8433      8434      8435      8436      8437      8438      8439
      8440      9042      9044      9046      9048      9050      9052      9054      9056      9058
      9060      9062      9064      9066      9068      9070      9072      9074      9076      9078
# ... 13 like lines cut
#---1----|----2----|----3----|----4----|----5----|----6----|----7----|----8----|----9----|---10----|
/GRNOD/NODE/8
#title                                                                                              
grnodnode.7                                                                                         
# item_ID1  item_ID2  item_ID3  item_ID4  item_ID5  item_ID6  item_ID7  item_ID8  item_ID9 item_ID10
         5        26        27        28        29        30        31        34        35        36
        37        38        39      5873      5876      5877      5880      5881      5884      5885
      5888      5889      5892      5893      5896      5897      5900      5901      5904      5905
      5908      5909      5912      5913      5916      5917      5920      5921      5924      5925
      5928      5929      5932      5933      5936      5937      5940      5941      5944      5945
      5948      5949      5952      5953      5956      5957      5960      5961      5964      5965
      5968      7217      7218      7219      7220      7221      7222      7223      7224      7225
      7226      7227      7228      7229      7230      7231      7232      7233      7234      7235
      7236      7237      7238      7239      7240      7241      7242      7243      7244      7245
      7246      7247      7248      7249      7250      7251      7252      7253      7254      7255
      7256      7257      7258      7259      7260      7261      7262      7263      7264      7457
      7458      7459      7460      7461      7462      7463      7464      7465      7466      7467
      7468      7469      7470      7471      7472      7473      7474      7475      7476      7477
      7478      7479      7480      7601      7602      7603      7604      7605      7606      7607
      7608      7609      7610      7611      7612      7613      7614      7615      7616      7617
      7618      7619      7620      7621      7622      7623      7624      7625      7626      7627
      7628      7629      7630      7631      7632      7633      7634      7635      7636      7637
      7638      7639      7640      7641      7642      7643      7644      7645      7646      7647
      7648      7649      7650      7651      7652      7653      7654      7655      7656      7657
      7658      7659      7660      7661      7662      7663      7664      7665      7666      7667
# ... 13 like lines cut
#---1----|----2----|----3----|----4----|----5----|----6----|----7----|----8----|----9----|---10----|
/GRNOD/NODE/9
#title                                                                                              
grnodnode.8                                                                                         
# item_ID1  item_ID2  item_ID3  item_ID4  item_ID5  item_ID6  item_ID7  item_ID8  item_ID9 item_ID10
         4        10        11        12        13        14        15        18        19        20
        21        22        23      6545      6546      6549      6550      6553      6554      6557
      6558      6561      6562      6565      6566      6569      6570      6573      6574      6577
      6578      6581      6582      6585      6586      6589      6590      6593      6594      6597
      6598      6601      6602      6605      6606      6609      6610      6613      6614      6617
      6618      6621      6622      6625      6626      6629      6630      6633      6634      6637
      6638      8657      8658      8659      8660      8661      8662      8663      8664      8665
      8666      8667      8668      8669      8670      8671      8672      8673      8674      8675
      8676      8677      8678      8679      8680      8681      8682      8683      8684      8685
      8686      8687      8688      8689      8690      8691      8692      8693      8694      8695
      8696      8697      8698      8699      8700      8701      8702      8703      8704      8729
      8730      8731      8732      8733      8734      8735      8736      8737      8738      8739
      8740      8741      8742      8743      8744      8745      8746      8747      8748      8749
      8750      8751      8752      8801      8802      8803      8804      8805      8806      8807
      8808      8809      8810      8811      8812      8813      8814      8815      8816      8817
      8818      8819      8820      8821      8822      8823      8824      8825      8827      8829
      8831      8833      8835      8837      8839      8841      8843      8845      8847      8849
      8851      8853      8855      8857      8859      8861      8863      8865      8867      8869
      8871      8945      8946      8947      8948      8949      8950      8951      8952      8953
      8954      8955      8956      8957      8958      8959      8960      8961      8962      8963
# ... 13 like lines cut
#---1----|----2----|----3----|----4----|----5----|----6----|----7----|----8----|----9----|---10----|
/GRNOD/NODE/11
#title                                                                                              
grnodnode.10                                                                                        
# item_ID1  item_ID2  item_ID3  item_ID4  item_ID5  item_ID6  item_ID7  item_ID8  item_ID9 item_ID10
         6         7        58        59        60        61        62        63
#---1----|----2----|----3----|----4----|----5----|----6----|----7----|----8----|----9----|---10----|
/GRNOD/NODE/12
#title                                                                                              
grnodnode.11                                                                                        
# item_ID1  item_ID2  item_ID3  item_ID4  item_ID5  item_ID6  item_ID7  item_ID8  item_ID9 item_ID10
        47        74       182       183       184       185       186       187
#---1----|----2----|----3----|----4----|----5----|----6----|----7----|----8----|----9----|---10----|
/GRNOD/NODE/13
#title                                                                                              
grnodnode.12                                                                                        
# item_ID1  item_ID2  item_ID3  item_ID4  item_ID5  item_ID6  item_ID7  item_ID8  item_ID9 item_ID10
        46        75       176       177       178       179       180       181
#---1----|----2----|----3----|----4----|----5----|----6----|----7----|----8----|----9----|---10----|
/GRNOD/NODE/14
#title                                                                                              
grnodnode.13                                                                                        
# item_ID1  item_ID2  item_ID3  item_ID4  item_ID5  item_ID6  item_ID7  item_ID8  item_ID9 item_ID10
        45        76       170       171       172       173       174       175
#---1----|----2----|----3----|----4----|----5----|----6----|----7----|----8----|----9----|---10----|
/GRNOD/NODE/15
#title                                                                                              
grnodnode.14                                                                                        
# item_ID1  item_ID2  item_ID3  item_ID4  item_ID5  item_ID6  item_ID7  item_ID8  item_ID9 item_ID10
        44        77       164       165       166       167       168       169
#---1----|----2----|----3----|----4----|----5----|----6----|----7----|----8----|----9----|---10----|
/GRNOD/NODE/16
#title                                                                                              
grnodnode.15                                                                                        
# item_ID1  item_ID2  item_ID3  item_ID4  item_ID5  item_ID6  item_ID7  item_ID8  item_ID9 item_ID10
        43        78       158       159       160       161       162       163
#---1----|----2----|----3----|----4----|----5----|----6----|----7----|----8----|----9----|---10----|
/GRNOD/NODE/17
#title                                                                                              
grnodnode.16                                                                                        
# item_ID1  item_ID2  item_ID3  item_ID4  item_ID5  item_ID6  item_ID7  item_ID8  item_ID9 item_ID10
        42        79       152       153       154       155       156       157
#---1----|----2----|----3----|----4----|----5----|----6----|----7----|----8----|----9----|---10----|
/GRNOD/NODE/18
#title                                                                                              
grnodnode.17                                                                                        
# item_ID1  item_ID2  item_ID3  item_ID4  item_ID5  item_ID6  item_ID7  item_ID8  item_ID9 item_ID10
         3         5        34        35        36        37        38        39
#---1----|----2----|----3----|----4----|----5----|----6----|----7----|----8----|----9----|---10----|
/GRNOD/NODE/19
#title                                                                                              
grnodnode.18                                                                                        
# item_ID1  item_ID2  item_ID3  item_ID4  item_ID5  item_ID6  item_ID7  item_ID8  item_ID9 item_ID10
         4        66        67        68        69        70        71
#---1----|----2----|----3----|----4----|----5----|----6----|----7----|----8----|----9----|---10----|
/GRNOD/NODE/20
#title                                                                                              
grnodnode.19                                                                                        
# item_ID1  item_ID2  item_ID3  item_ID4  item_ID5  item_ID6  item_ID7  item_ID8  item_ID9 item_ID10
        18       121       127       133       139       145       151
#---1----|----2----|----3----|----4----|----5----|----6----|----7----|----8----|----9----|---10----|
/GRNOD/NODE/21
#title                                                                                              
grnodnode.20                                                                                        
# item_ID1  item_ID2  item_ID3  item_ID4  item_ID5  item_ID6  item_ID7  item_ID8  item_ID9 item_ID10
        19       120       126       132       138       144       150
#---1----|----2----|----3----|----4----|----5----|----6----|----7----|----8----|----9----|---10----|
/GRNOD/NODE/22
#title                                                                                              
grnodnode.21                                                                                        
# item_ID1  item_ID2  item_ID3  item_ID4  item_ID5  item_ID6  item_ID7  item_ID8  item_ID9 item_ID10
        20       119       125       131       137       143       149
#---1----|----2----|----3----|----4----|----5----|----6----|----7----|----8----|----9----|---10----|
/GRNOD/NODE/23
#title                                                                                              
grnodnode.22                                                                                        
# item_ID1  item_ID2  item_ID3  item_ID4  item_ID5  item_ID6  item_ID7  item_ID8  item_ID9 item_ID10
        21       118       124       130       136       142       148
#---1----|----2----|----3----|----4----|----5----|----6----|----7----|----8----|----9----|---10----|
/GRNOD/NODE/24
#title                                                                                              
grnodnode.23                                                                                        
# item_ID1  item_ID2  item_ID3  item_ID4  item_ID5  item_ID6  item_ID7  item_ID8  item_ID9 item_ID10
        22       117       123       129       135       141       147
#---1----|----2----|----3----|----4----|----5----|----6----|----7----|----8----|----9----|---10----|
/GRNOD/NODE/25
#title                                                                                              
grnodnode.24                                                                                        
# item_ID1  item_ID2  item_ID3  item_ID4  item_ID5  item_ID6  item_ID7  item_ID8  item_ID9 item_ID10
        23       116       122       128       134       140       146
#---1----|----2----|----3----|----4----|----5----|----6----|----7----|----8----|----9----|---10----|
/GRNOD/NODE/26
#title                                                                                              
grnodnode.25                                                                                        
# item_ID1  item_ID2  item_ID3  item_ID4  item_ID5  item_ID6  item_ID7  item_ID8  item_ID9 item_ID10
         2        26        27        28        29        30        31
#---1----|----2----|----3----|----4----|----5----|----6----|----7----|----8----|----9----|---10----|
/GRNOD/NODE/27
#title                                                                                              
grnodnode.26                                                                                        
# item_ID1  item_ID2  item_ID3  item_ID4  item_ID5  item_ID6  item_ID7  item_ID8  item_ID9 item_ID10
         1        50        51        52        53        54        55
#---1----|----2----|----3----|----4----|----5----|----6----|----7----|----8----|----9----|---10----|
/GRNOD/NODE/28
#title                                                                                              
grnodnode.27                                                                                        
# item_ID1  item_ID2  item_ID3  item_ID4  item_ID5  item_ID6  item_ID7  item_ID8  item_ID9 item_ID10
        10        85        91        97       103       109       115
#---1----|----2----|----3----|----4----|----5----|----6----|----7----|----8----|----9----|---10----|
/GRNOD/NODE/29
#title                                                                                              
grnodnode.28                                                                                        
# item_ID1  item_ID2  item_ID3  item_ID4  item_ID5  item_ID6  item_ID7  item_ID8  item_ID9 item_ID10
        11        84        90        96       102       108       114
#---1----|----2----|----3----|----4----|----5----|----6----|----7----|----8----|----9----|---10----|
/GRNOD/NODE/30
#title                                                                                              
grnodnode.29                                                                                        
# item_ID1  item_ID2  item_ID3  item_ID4  item_ID5  item_ID6  item_ID7  item_ID8  item_ID9 item_ID10
        12        83        89        95       101       107       113
#---1----|----2----|----3----|----4----|----5----|----6----|----7----|----8----|----9----|---10----|
/GRNOD/NODE/31
#title                                                                                              
grnodnode.30                                                                                        
# item_ID1  item_ID2  item_ID3  item_ID4  item_ID5  item_ID6  item_ID7  item_ID8  item_ID9 item_ID10
        13        82        88        94       100       106       112
#---1----|----2----|----3----|----4----|----5----|----6----|----7----|----8----|----9----|---10----|
/GRNOD/NODE/32
#title                                                                                              
grnodnode.31                                                                                        
# item_ID1  item_ID2  item_ID3  item_ID4  item_ID5  item_ID6  item_ID7  item_ID8  item_ID9 item_ID10
        14        81        87        93        99       105       111
#---1----|----2----|----3----|----4----|----5----|----6----|----7----|----8----|----9----|---10----|
/GRNOD/NODE/33
#title                                                                                              
grnodnode.32                                                                                        
# item_ID1  item_ID2  item_ID3  item_ID4  item_ID5  item_ID6  item_ID7  item_ID8  item_ID9 item_ID10
        15        80        86        92        98       104       110
#---1----|----2----|----3----|----4----|----5----|----6----|----7----|----8----|----9----|---10----|
/GRNOD/NODE/34
#title                                                                                              
set1                                                                                                
# item_ID1  item_ID2  item_ID3  item_ID4  item_ID5  item_ID6  item_ID7  item_ID8  item_ID9 item_ID10
         3      8441      8442      8443      8444      8445      8446      8447      8448      8449
      8450      8451      8452      8453      8454      8455      8456      8457      8458      8459
      8460      8461      8462      8463      8464
#---1----|----2----|----3----|----4----|----5----|----6----|----7----|----8----|----9----|---10----|
/GRNOD/NODE/35
#title                                                                                              
set2                                                                                                
# item_ID1  item_ID2  item_ID3  item_ID4  item_ID5  item_ID6  item_ID7  item_ID8  item_ID9 item_ID10
         2      9017      9018      9019      9020      9021      9022      9023      9024      9025
      9026      9027      9028      9029      9030      9031      9032      9033      9034      9035
      9036      9037      9038      9039      9040
#---1----|----2----|----3----|----4----|----5----|----6----|----7----|----8----|----9----|---10----|
/GRNOD/NODE/36
#title                                                                                              
set3                                                                                                
# item_ID1  item_ID2  item_ID3  item_ID4  item_ID5  item_ID6  item_ID7  item_ID8  item_ID9 item_ID10
         1      9497      9498      9499      9500      9501      9502      9503      9504      9505
      9506      9507      9508      9509      9510      9511      9512      9513      9514      9515
      9516      9517      9518      9519      9520
#---1----|----2----|----3----|----4----|----5----|----6----|----7----|----8----|----9----|---10----|
/TH/NODE/1
#thgroup_name
outputblock1                                                                                        
#  var_ID1   var_ID2   var_ID3   var_ID4   var_ID5   var_ID6   var_ID7   var_ID8   var_ID9  var_ID10
DEF       
#  node_ID   skew_ID                                         node_name
         1         0                                                                                
      9520         0                                                                                
##--------------------------------------------------------------------------------------------------
## End Of Radioss Block Deck
##--------------------------------------------------------------------------------------------------
/END
##<?xml version="1.0" encoding="utf-8"?>
##<Altair_XML_Export>
##    <UDM xmlns:SOAP-ENV="http://schemas.xmlsoap.org/soap/envelope/" xmlns:SOAP-ENC="http://schemas.xmlsoap.org/soap/encoding/" xmlns:xsi="http://www.w3.org/2001/XMLSchema-instance" xmlns:xsd="http://www.w3.org/2001/XMLSchema" xmlns:udmcfg="http://schemas.altair.com/AltairUDMRuntimeConfig" xmlns:udmxml="http://schemas.altair.com/AltairUDM" xmlns:importrules="http://schemas.altair.com/hsm/importru
##        <udmxml:EntityCollection xsi:type="udmxml:EntityCollectionCType">
##            <udmxml:Entity xsi:type="udmxml:AssemblyDMCType" displayName="HW_Assembly" contentDefinitionType="UDMAssemblyDM" id="188996063fd2984ab3ede1a3d7672ee1:0">
##                <udmxml:Children>
##                    <udmxml:Child xsi:type="udmxml:ChildCType" refId="c490d6daf946644d8141228746b29868:0" timestamp="1678890891193473" childFlags="0" groupName="boas" contentDefinitionType="UDMBOA"/>
##                </udmxml:Children>
##            </udmxml:Entity>
##            <udmxml:Entity xsi:type="udmxml:BOACType" displayName="hm0" contentDefinitionType="UDMBOA" id="c490d6daf946644d8141228746b29868:0">
##                <udmxml:Children>
##                    <udmxml:Child xsi:type="udmxml:ChildCType" refId="220791fd36ac0245b0b22437c9130a7a:0" timestamp="1678890891194470" childFlags="0" groupName="parts" contentDefinitionType="UDMPartProtoOcc">
##                        <AdditionalIdList xsi:type="udmxml:AdditionalIdCType" xmlns="http://schemas.altair.com/AltairUDM" keyValue="Model" keyName="displayname" contentDefinitionType="UDMPartProtoOcc"/>
##                    </udmxml:Child>
##                </udmxml:Children>
##            </udmxml:Entity>
##            <udmxml:Entity xsi:type="udmxml:PartCType" displayName="auto1.p" contentDefinitionType="UDMPartProto" id="a8ce0519025c414482b4a94fd7259ee6:0">
##                <udmxml:Attributes>
##                    <udmxml:Attribute xsi:type="udmxml:AttributeCType" valueutf8="-" type="string" name="studyrevision" displayName="STUDY_REVISION">-</udmxml:Attribute>
##                    <udmxml:Attribute xsi:type="udmxml:AttributeCType" valueutf8="auto1" type="string" name="HW_UID">auto1</udmxml:Attribute>
##                    <udmxml:Attribute xsi:type="udmxml:AttributeCType" valueutf8="-" type="string" name="PLMXML_PRODUCTREVISION_REVISION">-</udmxml:Attribute>
##                </udmxml:Attributes>
##            </udmxml:Entity>
##            <udmxml:Entity xsi:type="udmxml:PartCType" displayName="rdv_0530_wave_propagation_0000.rad.p" contentDefinitionType="UDMPartProto" id="fa0791125b4a3b4dbe18caf3f89060f8:0">
##                <udmxml:Attributes>
##                    <udmxml:Attribute xsi:type="udmxml:AttributeCType" valueutf8="-" type="string" name="studyrevision" displayName="STUDY_REVISION">-</udmxml:Attribute>
##                    <udmxml:Attribute xsi:type="udmxml:AttributeCType" valueutf8="rdv_0530_wave_propagation_0000.rad" type="string" name="HW_UID">rdv_0530_wave_propagation_0000.rad</udmxml:Attribute>
##                    <udmxml:Attribute xsi:type="udmxml:AttributeCType" valueutf8="-" type="string" name="PLMXML_PRODUCTREVISION_REVISION">-</udmxml:Attribute>
##                </udmxml:Attributes>
##                <udmxml:Children>
##                    <udmxml:Child xsi:type="udmxml:ChildCType" refId="bfb1408bc761be4ab5d2db6ddffd9eba:0" timestamp="1678890896199399" childFlags="0" groupName="partprotoinst" contentDefinitionType="UDMPartProtoInst"/>
##                </udmxml:Children>
##            </udmxml:Entity>
##            <udmxml:Entity xsi:type="udmxml:PartCType" displayName="Module Model.p" contentDefinitionType="UDMPartProto" id="fd20ea2dc0f5854fb3f38bbe8823b45a:0">
##                <udmxml:Children>
##                    <udmxml:Child xsi:type="udmxml:ChildCType" refId="c09db276cbc4e24c951871566e86fe1f:0" timestamp="1678890896198402" childFlags="0" groupName="partprotoinst" contentDefinitionType="UDMPartProtoInst"/>
##                </udmxml:Children>
##            </udmxml:Entity>
##            <udmxml:Entity xsi:type="udmxml:PartCType" displayName="auto1" contentDefinitionType="UDMPartProtoInst" id="bfb1408bc761be4ab5d2db6ddffd9eba:0">
##                <udmxml:Attributes>
##                    <udmxml:Attribute xsi:type="udmxml:AttributeCType" valueutf8="1 0 0 0 0 1 0 0 0 0 1 0 0 0 0 1" type="string" name="trfmtx" displayName="Transformation matrix">1 0 0 0 0 1 0 0 0 0 1 0 0 0 0 1</udmxml:Attribute>
##                    <udmxml:Attribute xsi:type="udmxml:AttributeCType" valueutf8="true" type="boolean" name="trfmtxisrel" displayName="Is matrix relative?">true</udmxml:Attribute>
##                </udmxml:Attributes>
##                <udmxml:Children>
##                    <udmxml:Child xsi:type="udmxml:ChildCType" refId="a8ce0519025c414482b4a94fd7259ee6:0" timestamp="1678890896199399" childFlags="0" groupName="partprotos" contentDefinitionType="UDMPartProto"/>
##                </udmxml:Children>
##                <TransformationMatrix xsi:type="udmxml:TransformationMatrixCType" xmlns="http://schemas.altair.com/AltairUDM" transformationMatrixIsRelative="true" transformationMatrix="1 0 0 0 0 1 0 0 0 0 1 0 0 0 0 1"/>
##            </udmxml:Entity>
##            <udmxml:Entity xsi:type="udmxml:PartCType" displayName="rdv_0530_wave_propagation_0000.rad" contentDefinitionType="UDMPartProtoInst" id="c09db276cbc4e24c951871566e86fe1f:0">
##                <udmxml:Attributes>
##                    <udmxml:Attribute xsi:type="udmxml:AttributeCType" valueutf8="1 0 0 0 0 1 0 0 0 0 1 0 0 0 0 1" type="string" name="trfmtx" displayName="Transformation matrix">1 0 0 0 0 1 0 0 0 0 1 0 0 0 0 1</udmxml:Attribute>
##                    <udmxml:Attribute xsi:type="udmxml:AttributeCType" valueutf8="true" type="boolean" name="trfmtxisrel" displayName="Is matrix relative?">true</udmxml:Attribute>
##                </udmxml:Attributes>
##                <udmxml:Children>
##                    <udmxml:Child xsi:type="udmxml:ChildCType" refId="fa0791125b4a3b4dbe18caf3f89060f8:0" timestamp="1678890896198402" childFlags="0" groupName="partprotos" contentDefinitionType="UDMPartProto"/>
##                </udmxml:Children>
##                <TransformationMatrix xsi:type="udmxml:TransformationMatrixCType" xmlns="http://schemas.altair.com/AltairUDM" transformationMatrixIsRelative="true" transformationMatrix="1 0 0 0 0 1 0 0 0 0 1 0 0 0 0 1"/>
##            </udmxml:Entity>
##            <udmxml:Entity xsi:type="udmxml:PartCType" protoInstanceRefId="bfb1408bc761be4ab5d2db6ddffd9eba:0" prototypeRefId="a8ce0519025c414482b4a94fd7259ee6:0" displayName="auto1" contentDefinitionType="UDMPartProtoOcc" id="decd9b9e9bb89a4eacf0b2a0740fa916:0">
##                <udmxml:Attributes>
##                    <udmxml:Attribute xsi:type="udmxml:AttributeCType" valueutf8="a8ce0519025c414482b4a94fd7259ee6" type="string" name="protoref" displayName="Prototype reference">a8ce0519025c414482b4a94fd7259ee6</udmxml:Attribute>
##                    <udmxml:Attribute xsi:type="udmxml:AttributeCType" valueutf8="bfb1408bc761be4ab5d2db6ddffd9eba" type="string" name="protoinstanceref" displayName="Prototype Instance reference">bfb1408bc761be4ab5d2db6ddffd9eba</udmxml:Attribute>
##                    <udmxml:Attribute xsi:type="udmxml:AttributeCType" valueutf8="Components(4)" type="string" name="EntitySelectionExp">Components(4)</udmxml:Attribute>
##                    <udmxml:Attribute xsi:type="udmxml:AttributeCType" valueutf8="4" type="string" name="SelectionExp">4</udmxml:Attribute>
##                    <udmxml:Attribute xsi:type="udmxml:AttributeCType" valueutf8="7" type="string" name="UdmxmlString_HmOccurrenceColor">7</udmxml:Attribute>
##                    <udmxml:Attribute xsi:type="udmxml:AttributeCType" valueutf8="6" type="string" name="UdmxmlString_HmOccurrenceId">6</udmxml:Attribute>
##                    <udmxml:Attribute xsi:type="udmxml:AttributeCType" valueutf8="16776960" type="string" name="UdmxmlString_HmOccurrenceTrueColor">16776960</udmxml:Attribute>
##                </udmxml:Attributes>
##            </udmxml:Entity>
##            <udmxml:Entity xsi:type="udmxml:PartCType" protoInstanceRefId="c09db276cbc4e24c951871566e86fe1f:0" prototypeRefId="fa0791125b4a3b4dbe18caf3f89060f8:0" displayName="rdv_0530_wave_propagation_0000.rad" contentDefinitionType="UDMPartProtoOcc" id="a4feeddc05825145a667edbced15c5f1:0">
##                <udmxml:Attributes>
##                    <udmxml:Attribute xsi:type="udmxml:AttributeCType" valueutf8="fa0791125b4a3b4dbe18caf3f89060f8" type="string" name="protoref" displayName="Prototype reference">fa0791125b4a3b4dbe18caf3f89060f8</udmxml:Attribute>
##                    <udmxml:Attribute xsi:type="udmxml:AttributeCType" valueutf8="c09db276cbc4e24c951871566e86fe1f" type="string" name="protoinstanceref" displayName="Prototype Instance reference">c09db276cbc4e24c951871566e86fe1f</udmxml:Attribute>
##                    <udmxml:Attribute xsi:type="udmxml:AttributeCType" valueutf8="6" type="string" name="UdmxmlString_HmOccurrenceColor">6</udmxml:Attribute>
##                    <udmxml:Attribute xsi:type="udmxml:AttributeCType" valueutf8="4" type="string" name="UdmxmlString_HmOccurrenceId">4</udmxml:Attribute>
##                    <udmxml:Attribute xsi:type="udmxml:AttributeCType" valueutf8="65535" type="string" name="UdmxmlString_HmOccurrenceTrueColor">65535</udmxml:Attribute>
##                </udmxml:Attributes>
##                <udmxml:Children>
##                    <udmxml:Child xsi:type="udmxml:ChildCType" refId="decd9b9e9bb89a4eacf0b2a0740fa916:0" timestamp="1678890896199399" childFlags="0" groupName="partprotooccs" contentDefinitionType="UDMPartProtoOcc">
##                        <AdditionalIdList xsi:type="udmxml:AdditionalIdCType" xmlns="http://schemas.altair.com/AltairUDM" keyValue="auto1" keyName="displayname" contentDefinitionType="UDMPartProtoOcc"/>
##                    </udmxml:Child>
##                </udmxml:Children>
##            </udmxml:Entity>
##            <udmxml:Entity xsi:type="udmxml:PartCType" prototypeRefId="fd20ea2dc0f5854fb3f38bbe8823b45a:0" displayName="Model" contentDefinitionType="UDMPartProtoOcc" id="220791fd36ac0245b0b22437c9130a7a:0">
##                <udmxml:Attributes>
##                    <udmxml:Attribute xsi:type="udmxml:AttributeCType" valueutf8="fd20ea2dc0f5854fb3f38bbe8823b45a" type="string" name="protoref" displayName="Prototype reference">fd20ea2dc0f5854fb3f38bbe8823b45a</udmxml:Attribute>
##                    <udmxml:Attribute xsi:type="udmxml:AttributeCType" valueutf8="5" type="string" name="UdmxmlString_HmOccurrenceColor">5</udmxml:Attribute>
##                    <udmxml:Attribute xsi:type="udmxml:AttributeCType" valueutf8="2" type="string" name="UdmxmlString_HmOccurrenceId">2</udmxml:Attribute>
##                    <udmxml:Attribute xsi:type="udmxml:AttributeCType" valueutf8="16711680" type="string" name="UdmxmlString_HmOccurrenceTrueColor">16711680</udmxml:Attribute>
##                    <udmxml:Attribute xsi:type="udmxml:AttributeCType" valueutf8="true" type="boolean" name="pseudo root">true</udmxml:Attribute>
##                </udmxml:Attributes>
##                <udmxml:Children>
##                    <udmxml:Child xsi:type="udmxml:ChildCType" refId="a4feeddc05825145a667edbced15c5f1:0" timestamp="1678890896198402" childFlags="0" groupName="partprotooccs" contentDefinitionType="UDMPartProtoOcc">
##                        <AdditionalIdList xsi:type="udmxml:AdditionalIdCType" xmlns="http://schemas.altair.com/AltairUDM" keyValue="rdv_0530_wave_propagation_0000.rad" keyName="displayname" contentDefinitionType="UDMPartProtoOcc"/>
##                    </udmxml:Child>
##                </udmxml:Children>
##            </udmxml:Entity>
##        </udmxml:EntityCollection>
##        <udmxml:RelationCollection xsi:type="udmxml:RelationCollectionCType"/>
##        <udmxml:RootEntities xsi:type="udmxml:RootEntityCollectionCType">
##            <udmxml:ItemId>188996063fd2984ab3ede1a3d7672ee1:0</udmxml:ItemId>
##        </udmxml:RootEntities>
##    </UDM>
##</Altair_XML_Export>
