#RADIOSS STARTER
#--------------------------------------------------------------------------------------------------|
#- RADIOSS DECK WRITTEN BY HyperCrash
#HyperCrash 2019.1 (64 bits) 
#Mon Apr  1 11:18:58 2019
#-
#-
#- DATE	Mon Apr  1 11:18:58 2019
#--------------------------------------------------------------------------------------------------|
#---1----|----2----|----3----|----4----|----5----|----6----|----7----|----8----|----9----|---10----|
/BEGIN
KS2_model_v01                                                                   
      2018         0
                  kg                  mm                  ms
                  kg                  mm                  ms
#---1----|----2----|----3----|----4----|----5----|----6----|----7----|----8----|----9----|---10----|
#-  1. CONTROL CARDS:
#---1----|----2----|----3----|----4----|----5----|----6----|----7----|----8----|----9----|---10----|
/TITLE
KS2-test thickness of sheetmetalProben 1.5mmx2.0mm
#---1----|----2----|----3----|----4----|----5----|----6----|----7----|----8----|----9----|---10----|
#include MAT36_sheetmetal.inc
#include MAT83_solid_spotweld.inc
#include CONNECT_Elements.inc
#include mesh_variante_1_0000.inc
#---1----|----2----|----3----|----4----|----5----|----6----|----7----|----8----|----9----|---10----|
/ANALY
#    N2D3D             IPARITH      ISUB
         0                   0         0
#---1----|----2----|----3----|----4----|----5----|----6----|----7----|----8----|----9----|---10----|
/DEF_SHELL
#   ISHELL    ISMSTR    ITHICK     IPLAS   ISTRAIN                        I_SH3N     IDRIL
         0         0         0         0         0                             0         0
#---1----|----2----|----3----|----4----|----5----|----6----|----7----|----8----|----9----|---10----|
/DEF_SOLID
#  I_SOLID    ISMSTR             ISTRAIN                                  IFRAME
         0         0                   0                                       0
#---1----|----2----|----3----|----4----|----5----|----6----|----7----|----8----|----9----|---10----|
/IOFLAG
#     IPRI               IGTYP     IOUTP    IOUTYY   IROOTYY     IDROT
         0                   0         0         0         0         0
#---1----|----2----|----3----|----4----|----5----|----6----|----7----|----8----|----9----|---10----|
#-  2. MATERIALS:
#---1----|----2----|----3----|----4----|----5----|----6----|----7----|----8----|----9----|---10----|
/MAT/ELAST/4
MAT_ELASTIC_4
#              RHO_I
             7.85E-6                   0
#                  E                  nu
                 210                  .3
#---1----|----2----|----3----|----4----|----5----|----6----|----7----|----8----|----9----|---10----|
#-  3. NODES:
#---1----|----2----|----3----|----4----|----5----|----6----|----7----|----8----|----9----|---10----|
/NODE
      1000                -2.5           314.42499                 -12
      1001               -22.5           321.92499                 -12
      1002                 2.5           318.17499                 -12
      1003      -4.9229914E-14           314.42499                  12
      1005                 2.5           310.67499                  12
      1006               -17.5           321.92499                 -12
      1008                -7.5           318.17499                  12
      1009                 -10           318.17499                  12
      1010               -12.5           318.17499                  12
      1011               -12.5           314.42499                  12
      1014                -2.5           310.67499                  12
      1015                  10           318.17499                  12
      1016                 2.5           314.42499                 -12
      1017                 7.5           310.67499                  12
      1018                  10           310.67499                 -12
      1019                   5           318.17499                 -12
      1020                   5           310.67499                  12
      1021               -22.5           314.42499                 -12
      1025                  20           318.17499                  12
      1026                  20           310.67499                  12
# ... 1532 like lines cut
#---1----|----2----|----3----|----4----|----5----|----6----|----7----|----8----|----9----|---10----|
#-  4. BOUNDARY CONDITIONS:
#---1----|----2----|----3----|----4----|----5----|----6----|----7----|----8----|----9----|---10----|
/BCS/1
Nodes_fixe
#  Tra rot   skew_ID  grnod_ID
   111 111         0     77864
/GRNOD/NODE/77864
BCS_group_77864_of_NODE
    110000    110002    110004    110006    110008
#---1----|----2----|----3----|----4----|----5----|----6----|----7----|----8----|----9----|---10----|
/BCS/2
Nodes_move
#  Tra rot   skew_ID  grnod_ID
   011 111         0     77865
/GRNOD/NODE/77865
BCS_group_77865_of_NODE
    110001    110003    110005    110007    110009
#---1----|----2----|----3----|----4----|----5----|----6----|----7----|----8----|----9----|---10----|
/BCS/3
Rigids_BC
#  Tra rot   skew_ID  grnod_ID
   011 110         0     77868
/GRNOD/NODE/77868
BCS_group_77868_of_NODE
    203419    203420    203421    203422    203423    203424    203425    203426    203427    203428
#---1----|----2----|----3----|----4----|----5----|----6----|----7----|----8----|----9----|---10----|
#-  5. PARTS:
#---1----|----2----|----3----|----4----|----5----|----6----|----7----|----8----|----9----|---10----|
/PART/2
90_rg_u
         3         4         0
#---1----|----2----|----3----|----4----|----5----|----6----|----7----|----8----|----9----|---10----|
# SHELL elements of /PART/2/90_rg_u:
#---1----|----2----|----3----|----4----|----5----|----6----|----7----|----8----|----9----|---10----|
/SHELL/2
      9000     10065     10064      9190      9189
      9001      9153     10065      9189      9154
      9002      9938      9937     10064     10065
      9003      9935      9938     10065      9153
      9004     10064      9439      9438      9190
      9005      9937      9008      9439     10064
      9006     10062     10061      9191      9188
      9007      9182     10062      9188      9181
      9008      9189      9190     10061     10062
      9009      9154      9189     10062      9182
      9010     10061      9437      9484      9191
      9011      9190      9438      9437     10061
      9012      9152      9186      9156      9151
      9013      9930      9936      9186      9152
      9014      9186      9153      9154      9156
      9015      9936      9935      9153      9186
      9016      9150      9155      9192      9187
      9017      9151      9156      9155      9150
      9018      9155      9182      9181      9192
      9019      9156      9154      9182      9155
# ... 140 like lines cut
#---1----|----2----|----3----|----4----|----5----|----6----|----7----|----8----|----9----|---10----|
/PART/3
90_rg_o
         4         4         0
#---1----|----2----|----3----|----4----|----5----|----6----|----7----|----8----|----9----|---10----|
# SHELL elements of /PART/3/90_rg_o:
#---1----|----2----|----3----|----4----|----5----|----6----|----7----|----8----|----9----|---10----|
/SHELL/3
      9160      9273      9270      9269      9274
      9161      9274      9269      9234      9233
      9162      9230      9273      9274      9231
      9163      9231      9274      9233      9232
      9164      9275      9272      9271      9276
      9165      9276      9271      9270      9273
      9166      9228      9275      9276      9229
      9167      9229      9276      9273      9230
      9168      9278      9277      9281      9280
      9169      9277      9266      9265      9281
      9170      9280      9281      9237      9236
      9171      9281      9265      9238      9237
      9172      9270      9279      9282      9269
      9173      9279      9278      9280      9282
      9174      9269      9282      9235      9234
      9175      9282      9280      9236      9235
      9176      9283      9285      9286      9284
      9177      9285      9268      9267      9286
      9178      9284      9286      9277      9278
      9179      9286      9267      9266      9277
# ... 140 like lines cut
#---1----|----2----|----3----|----4----|----5----|----6----|----7----|----8----|----9----|---10----|
/PART/7
60_rg_u
         3         4         0
#---1----|----2----|----3----|----4----|----5----|----6----|----7----|----8----|----9----|---10----|
# SHELL elements of /PART/7/60_rg_u:
#---1----|----2----|----3----|----4----|----5----|----6----|----7----|----8----|----9----|---10----|
/SHELL/7
      6000      7053      7054      7102      7052
      6001      7054      7116      7117      7102
      6002      7119      7120      7054      7053
      6003      7120      7115      7116      7054
      6004      6243      7103      7051      6037
      6005      7103      7053      7052      7051
      6006      6059      7118      7103      6243
      6007      7118      7119      7053      7103
      6008      7101      7098      7064      7100
      6009      7100      7064      7058      7059
      6010      7098      7114      7113      7064
      6011      7064      7113      7109      7058
      6012      7052      7102      7092      7099
      6013      7099      7092      7098      7101
      6014      7102      7117      7112      7092
      6015      7092      7112      7114      7098
      6016      6062      7097      7061      6025
      6017      6025      7061      7050      6028
      6018      7097      7101      7100      7061
      6019      7061      7100      7059      7050
# ... 140 like lines cut
#---1----|----2----|----3----|----4----|----5----|----6----|----7----|----8----|----9----|---10----|
/PART/8
60_rg_o
         4         4         0
#---1----|----2----|----3----|----4----|----5----|----6----|----7----|----8----|----9----|---10----|
# SHELL elements of /PART/8/60_rg_o:
#---1----|----2----|----3----|----4----|----5----|----6----|----7----|----8----|----9----|---10----|
/SHELL/8
      6160      6791      6788      6789      6721
      6161      6681      6715      6788      6791
      6162      6777      6791      6721      6727
      6163      6790      6681      6791      6777
      6164      6721      6789      6138      6146
      6165      6727      6721      6146      6437
      6166      6794      6784      6785      6685
      6167      6726      6783      6784      6794
      6168      6788      6794      6685      6789
      6169      6715      6726      6794      6788
      6170      6685      6785      6182      6147
      6171      6789      6685      6147      6138
      6172      6676      6703      6690      6675
      6173      6725      6676      6675      6677
      6174      6675      6690      6715      6681
      6175      6677      6675      6681      6790
      6176      6786      6782      6683      6787
      6177      6703      6786      6787      6690
      6178      6787      6683      6783      6726
      6179      6690      6787      6726      6715
# ... 140 like lines cut
#---1----|----2----|----3----|----4----|----5----|----6----|----7----|----8----|----9----|---10----|
/PART/12
30_rg_u
         3         4         0
#---1----|----2----|----3----|----4----|----5----|----6----|----7----|----8----|----9----|---10----|
# SHELL elements of /PART/12/30_rg_u:
#---1----|----2----|----3----|----4----|----5----|----6----|----7----|----8----|----9----|---10----|
/SHELL/12
      3000      4053      4054      4102      4052
      3001      4054      4116      4117      4102
      3002      4119      4120      4054      4053
      3003      4120      4115      4116      4054
      3004      3093      4103      4051      3131
      3005      4103      4053      4052      4051
      3006      3701      4118      4103      3093
      3007      4118      4119      4053      4103
      3008      4101      4098      4064      4100
      3009      4100      4064      4058      4059
      3010      4098      4114      4113      4064
      3011      4064      4113      4109      4058
      3012      4052      4102      4092      4099
      3013      4099      4092      4098      4101
      3014      4102      4117      4112      4092
      3015      4092      4112      4114      4098
      3016      3690      4097      4061      3397
      3017      3397      4061      4050      3442
      3018      4097      4101      4100      4061
      3019      4061      4100      4059      4050
# ... 140 like lines cut
#---1----|----2----|----3----|----4----|----5----|----6----|----7----|----8----|----9----|---10----|
/PART/13
30_rg_o
         4         4         0
#---1----|----2----|----3----|----4----|----5----|----6----|----7----|----8----|----9----|---10----|
# SHELL elements of /PART/13/30_rg_o:
#---1----|----2----|----3----|----4----|----5----|----6----|----7----|----8----|----9----|---10----|
/SHELL/13
      3160      3484      3446      3034      3664
      3161      3035      3447      3446      3484
      3162      3485      3484      3664      3199
      3163      3273      3035      3484      3485
      3164      3664      3034      3228      3546
      3165      3199      3664      3546      3545
      3166      3638      3527      3278      3036
      3167      3028      3462      3527      3638
      3168      3446      3638      3036      3034
      3169      3447      3028      3638      3446
      3170      3036      3278      3230      3231
      3171      3034      3036      3231      3228
      3172      3532      3448      3026      3272
      3173      3279      3532      3272      3027
      3174      3272      3026      3447      3035
      3175      3027      3272      3035      3273
      3176      3263      3274      3260      3445
      3177      3448      3263      3445      3026
      3178      3445      3260      3462      3028
      3179      3026      3445      3028      3447
# ... 140 like lines cut
#---1----|----2----|----3----|----4----|----5----|----6----|----7----|----8----|----9----|---10----|
/PART/17
0_rg_u
         3         4         0
#---1----|----2----|----3----|----4----|----5----|----6----|----7----|----8----|----9----|---10----|
# SHELL elements of /PART/17/0_rg_u:
#---1----|----2----|----3----|----4----|----5----|----6----|----7----|----8----|----9----|---10----|
/SHELL/17
      1000      2053      2054      2102      2052
      1001      2054      2116      2117      2102
      1002      2119      2120      2054      2053
      1003      2120      2115      2116      2054
      1004      1127      2103      2051      1132
      1005      2103      2053      2052      2051
      1006      1707      2118      2103      1127
      1007      2118      2119      2053      2103
      1008      2101      2098      2064      2100
      1009      2100      2064      2058      2059
      1010      2098      2114      2113      2064
      1011      2064      2113      2109      2058
      1012      2052      2102      2092      2099
      1013      2099      2092      2098      2101
      1014      2102      2117      2112      2092
      1015      2092      2112      2114      2098
      1016      1704      2097      2061      1403
      1017      1403      2061      2050      1453
      1018      2097      2101      2100      2061
      1019      2061      2100      2059      2050
# ... 140 like lines cut
#---1----|----2----|----3----|----4----|----5----|----6----|----7----|----8----|----9----|---10----|
/PART/18
0_rg_o
         4         4         0
#---1----|----2----|----3----|----4----|----5----|----6----|----7----|----8----|----9----|---10----|
# SHELL elements of /PART/18/0_rg_o:
#---1----|----2----|----3----|----4----|----5----|----6----|----7----|----8----|----9----|---10----|
/SHELL/18
      1160      1263      1271      1668      1512
      1161      1026      1457      1271      1263
      1162      1264      1263      1512      1539
      1163      1273      1026      1263      1264
      1164      1512      1668      1209      1516
      1165      1539      1512      1516      1590
      1166      1507      1032      1274      1262
      1167      1025      1456      1032      1507
      1168      1271      1507      1262      1668
      1169      1457      1025      1507      1271
      1170      1262      1274      1208      1369
      1171      1668      1262      1369      1209
      1172      1254      1458      1031      1272
      1173      1275      1254      1272      1033
      1174      1272      1031      1457      1026
      1175      1033      1272      1026      1273
      1176      1664      1280      1027      1455
      1177      1458      1664      1455      1031
      1178      1455      1027      1456      1025
      1179      1031      1455      1025      1457
# ... 140 like lines cut
#---1----|----2----|----3----|----4----|----5----|----6----|----7----|----8----|----9----|---10----|
/PART/22
sa_rg_u
         3         4         0
#---1----|----2----|----3----|----4----|----5----|----6----|----7----|----8----|----9----|---10----|
# SHELL elements of /PART/22/sa_rg_u:
#---1----|----2----|----3----|----4----|----5----|----6----|----7----|----8----|----9----|---10----|
/SHELL/22
     11000     11340     11342     11278     11304
     11001     11342     11245     11358     11278
     11002     11302     11258     11343     11193
     11003     11258     11340     11304     11343
     11004     11067     11386     11228     11230
     11005     11274     11067     11230     11235
     11006     11230     11228     11058     11195
     11007     11235     11230     11195     11402
     11008     11008     11179     11237     11233
     11009     11386     11008     11233     11228
     11010     11233     11237     11039     11196
     11011     11228     11233     11196     11058
     11012     11296     11351     11352     11194
     11013     11351     11262     11191     11352
     11014     11058     11196     11045     11350
     11015     11350     11045     11351     11296
     11016     11196     11039     11354     11045
     11017     11045     11354     11262     11351
     11018     11291     11038     11348     11025
     11019     11038     11296     11194     11348
# ... 60 like lines cut
#---1----|----2----|----3----|----4----|----5----|----6----|----7----|----8----|----9----|---10----|
/PART/23
sa_rg_o
         4         4         0
#---1----|----2----|----3----|----4----|----5----|----6----|----7----|----8----|----9----|---10----|
# SHELL elements of /PART/23/sa_rg_o:
#---1----|----2----|----3----|----4----|----5----|----6----|----7----|----8----|----9----|---10----|
/SHELL/23
     11080     11112     11322     11109     11029
     11081     11014     11112     11029     11013
     11082     11111     11080     11322     11112
     11083     11292     11111     11112     11014
     11084     11092     11372     11366     11060
     11085     11322     11092     11060     11109
     11086     11009     11065     11372     11092
     11087     11080     11009     11092     11322
     11088     11012     11072     11006     11031
     11089     11371     11012     11031     11411
     11090     11029     11109     11072     11012
     11091     11013     11029     11012     11371
     11092     11326     11063     11030     11369
     11093     11072     11326     11369     11006
     11094     11060     11366     11063     11326
     11095     11109     11060     11326     11072
     11096     11011     11047     11085     11075
     11097     11068     11011     11075     11367
     11098     11095     11099     11047     11011
     11099     11290     11095     11011     11068
# ... 60 like lines cut
#---1----|----2----|----3----|----4----|----5----|----6----|----7----|----8----|----9----|---10----|
/PART/70
Beams unten
       302         0         0
#---1----|----2----|----3----|----4----|----5----|----6----|----7----|----8----|----9----|---10----|
# SPRING elements of /PART/70/Beams unten:
#---1----|----2----|----3----|----4----|----5----|----6----|----7----|----8----|----9----|---10----|
/SPRING/70
    100000    100000    110000    200205                              
    100001    100002    110002    200201                              
#---1----|----2----|----3----|----4----|----5----|----6----|----7----|----8----|----9----|---10----|
/PART/71
Beams oben
       302         0         0
#---1----|----2----|----3----|----4----|----5----|----6----|----7----|----8----|----9----|---10----|
# SPRING elements of /PART/71/Beams oben:
#---1----|----2----|----3----|----4----|----5----|----6----|----7----|----8----|----9----|---10----|
/SPRING/71
    110000    100001    110001    200206                              
    110001    100003    110003    200207                              
    110002    100005    110005    200208                              
    110003    100007    110007    200209                              
    110004    100009    110009    200210                              
#---1----|----2----|----3----|----4----|----5----|----6----|----7----|----8----|----9----|---10----|
/PART/720
Beams unten 0grad
       302         0         0
#---1----|----2----|----3----|----4----|----5----|----6----|----7----|----8----|----9----|---10----|
# SPRING elements of /PART/720/Beams unten 0grad:
#---1----|----2----|----3----|----4----|----5----|----6----|----7----|----8----|----9----|---10----|
/SPRING/720
    100004    100008    110008    200204                              
#---1----|----2----|----3----|----4----|----5----|----6----|----7----|----8----|----9----|---10----|
/PART/730
Beams unten 60grad
       302         0         0
#---1----|----2----|----3----|----4----|----5----|----6----|----7----|----8----|----9----|---10----|
# SPRING elements of /PART/730/Beams unten 60grad:
#---1----|----2----|----3----|----4----|----5----|----6----|----7----|----8----|----9----|---10----|
/SPRING/730
    100002    100004    110004    200202                              
    100003    100006    110006    200203                              
#---1----|----2----|----3----|----4----|----5----|----6----|----7----|----8----|----9----|---10----|
#-  6. GEOMETRICAL SETS:
#---1----|----2----|----3----|----4----|----5----|----6----|----7----|----8----|----9----|---10----|
/PROP/SHELL/3
SECTION_SHELL_3
#   Ishell    Ismstr     Ish3n    Idrill
        24         2         0         0
#                 hm                  hf                  hr                  dm                  dn
                   0                   0                   0                   0                   0
#        N   Istrain               Thick              Ashear              Ithick     Iplas
         5         0                 1.5               .8333                   1         1
#---1----|----2----|----3----|----4----|----5----|----6----|----7----|----8----|----9----|---10----|
/PROP/SHELL/4
SECTION_SHELL_4
#   Ishell    Ismstr     Ish3n    Idrill
        24         2         0         0
#                 hm                  hf                  hr                  dm                  dn
                   0                   0                   0                   0                   0
#        N   Istrain               Thick              Ashear              Ithick     Iplas
         5         0                   2               .8333                   1         1
#---1----|----2----|----3----|----4----|----5----|----6----|----7----|----8----|----9----|---10----|
/PROP/SPR_BEAM/302
Machine_assembly
#               Mass             Inertia   skew_ID   sens_ID    Isflag     Ifail     Ileng    Ifail2
                   1                1E-4         0         0         0         0         0         0
#              KTens               CTens               ATens               BTens               DTens
                 100                  10                   0                   0                   0
#  fct_ID1     HTens   fct_ID2   fct_ID3   fct_ID4                 delta_minTens       delta_maxTens
         0         0         0         0         0                             0                   0
#                  F                   E              Ascale             Hscalex
                   0                   0                   0                   0
#              KTens               CTens               ATens               BTens               DTens
                 100                  10                   0                   0                   0
#  fct_ID1     HTens   fct_ID2   fct_ID3   fct_ID4                 delta_minTens       delta_maxTens
         0         0         0         0         0                             0                   0
#                  F                   E              Ascale             Hscalex
                   0                   0                   0                   0
#              KTens               CTens               ATens               BTens               DTens
                 100                  10                   0                   0                   0
#  fct_ID1     HTens   fct_ID2   fct_ID3   fct_ID4                 delta_minTens       delta_maxTens
         0         0         0         0         0                             0                   0
#                  F                   E              Ascale             Hscalex
                   0                   0                   0                   0
#                  K                   C                   A                   B                   D
                 100                  10                   0                   0                   0
#       N1         H        N2        N3        N4                     theta_min           theta_max
         0         0         0         0         0                             0                   0
#                  F                   E              Ascale             Hscalex
                   0                   0                   0                   0
#                  K                   C                   A                   B                   D
                 100                  10                   0                   0                   0
#       N1         H        N2        N3        N4                     theta_min           theta_max
         0         0         0         0         0                             0                   0
#                  F                   E              Ascale             Hscalex
                   0                   0                   0                   0
#                  K                   C                   A                   B                   D
                  10                  10                   0                   0                   0
#       N1         H        N2        N3        N4                     theta_min           theta_max
         0         0         0         0         0                             0                   0
#                  F                   E              Ascale             Hscalex
                   0                   0                   0                   0
#                 V0              Omega0
                   0                   0
#                  C                   n               alpha                beta
                   0                   0                   0                   0
                   0                   0                   0                   0
                   0                   0                   0                   0
                   0                   0                   0                   0
                   0                   0                   0                   0
                   0                   0                   0                   0
#---1----|----2----|----3----|----4----|----5----|----6----|----7----|----8----|----9----|---10----|
#-  7. FUNCTIONS:
#---1----|----2----|----3----|----4----|----5----|----6----|----7----|----8----|----9----|---10----|
/FUNCT/1
Velocity_Curve
#                  X                   Y
                   0                   0
                 .01                2E-4
                .025              .00125
                 .05                .005
                 .08               .0128
                 .12               .0288
                 .15                .045
                  .2                 .08
                 .25                .125
                  .3                 .18
                 .35                .245
                  .4                 .32
                 .45                 .41
                  .5                  .5
                 .55                 .58
                  .6                 .68
                 .65                .755
                  .7                 .82
                 .75                .875
                  .8                 .92
# ... 8 like lines cut
#---1----|----2----|----3----|----4----|----5----|----6----|----7----|----8----|----9----|---10----|
#-  8. INTERFACES:
#---1----|----2----|----3----|----4----|----5----|----6----|----7----|----8----|----9----|---10----|
/INTER/TYPE7/1
New INTER 1
#  Slav_id   Mast_id      Istf      Ithe      Igap                Ibag      Idel     Icurv      Iadm
     77792     77793         0         0         0                   0         0         0         0
#          Fscalegap             Gap_max             Fpenmax
                   0                   0                   0
#              Stmin               Stmax          %mesh_size               dtmin  Irem_gap   Irem_i2
                   0                   0                   0                   0         0         0
#              Stfac                Fric              Gapmin              Tstart               Tstop
                   0                  .1                1.75                   0                   0
#      IBC                        Inacti                VisS                VisF              Bumult
       000                             0                   0                   0                   0
#    Ifric    Ifiltr               Xfreq     Iform   sens_ID   fct_IDf             AscaleF   fric_ID
         0         0                   0         2         0         0                   0         0
/GRNOD/PART/77792
INTER_group_77792_of_PART
         5        10        15        20        25
/SURF/PART/77793
INTER_group_77794_of_PART
         4         9        14        19        24
#---1----|----2----|----3----|----4----|----5----|----6----|----7----|----8----|----9----|---10----|
#-  9. RIGID BODIES:
#---1----|----2----|----3----|----4----|----5----|----6----|----7----|----8----|----9----|---10----|
/RBODY/1001
KS2_90_unten
#     RBID     ISENS     NSKEW    ISPHER                MASS   Gnod_id     IKREM      ICOG   Surf_id
    203421         0         0         1                   0     77836         0         3         0
#                Jxx                 Jyy                 Jzz
                   0                   0                   0
#                Jxy                 Jyz                 Jxz
                   0                   0                   0
#  Ioptoff   Iexpams
         0         0
/GRNOD/GRNOD/77836
RBODY_group_77834_of_GRNOD
     77834     77835
/GRNOD/PART/77834
RBODY_group_77836_of_PART
         2
/GRNOD/NODE/77835
RBODY_group_77835_of_NODE
    100000
#---1----|----2----|----3----|----4----|----5----|----6----|----7----|----8----|----9----|---10----|
/RBODY/1002
KS2_90_oben
#     RBID     ISENS     NSKEW    ISPHER                MASS   Gnod_id     IKREM      ICOG   Surf_id
    203423         0         0         1                   0     77839         0         3         0
#                Jxx                 Jyy                 Jzz
                   0                   0                   0
#                Jxy                 Jyz                 Jxz
                   0                   0                   0
#  Ioptoff   Iexpams
         0         0
/GRNOD/GRNOD/77839
RBODY_group_77837_of_GRNOD
     77837     77838
/GRNOD/PART/77837
RBODY_group_77839_of_PART
         3
/GRNOD/NODE/77838
RBODY_group_77838_of_NODE
    100001
#---1----|----2----|----3----|----4----|----5----|----6----|----7----|----8----|----9----|---10----|
/RBODY/1003
KS2_60_unten
#     RBID     ISENS     NSKEW    ISPHER                MASS   Gnod_id     IKREM      ICOG   Surf_id
    203424         0         0         1                   0     77842         0         3         0
#                Jxx                 Jyy                 Jzz
                   0                   0                   0
#                Jxy                 Jyz                 Jxz
                   0                   0                   0
#  Ioptoff   Iexpams
         0         0
/GRNOD/GRNOD/77842
RBODY_group_77840_of_GRNOD
     77840     77841
/GRNOD/PART/77840
RBODY_group_77842_of_PART
         7
/GRNOD/NODE/77841
RBODY_group_77841_of_NODE
    100004
#---1----|----2----|----3----|----4----|----5----|----6----|----7----|----8----|----9----|---10----|
/RBODY/1004
KS2_60_oben
#     RBID     ISENS     NSKEW    ISPHER                MASS   Gnod_id     IKREM      ICOG   Surf_id
    203426         0         0         1                   0     77845         0         3         0
#                Jxx                 Jyy                 Jzz
                   0                   0                   0
#                Jxy                 Jyz                 Jxz
                   0                   0                   0
#  Ioptoff   Iexpams
         0         0
/GRNOD/GRNOD/77845
RBODY_group_77843_of_GRNOD
     77843     77844
/GRNOD/PART/77843
RBODY_group_77845_of_PART
         8
/GRNOD/NODE/77844
RBODY_group_77844_of_NODE
    100005
#---1----|----2----|----3----|----4----|----5----|----6----|----7----|----8----|----9----|---10----|
/RBODY/1005
KS2_30_unten
#     RBID     ISENS     NSKEW    ISPHER                MASS   Gnod_id     IKREM      ICOG   Surf_id
    203428         0         0         1                   0     77848         0         3         0
#                Jxx                 Jyy                 Jzz
                   0                   0                   0
#                Jxy                 Jyz                 Jxz
                   0                   0                   0
#  Ioptoff   Iexpams
         0         0
/GRNOD/GRNOD/77848
RBODY_group_77846_of_GRNOD
     77846     77847
/GRNOD/PART/77846
RBODY_group_77848_of_PART
        12
/GRNOD/NODE/77847
RBODY_group_77847_of_NODE
    100006
#---1----|----2----|----3----|----4----|----5----|----6----|----7----|----8----|----9----|---10----|
/RBODY/1006
KS2_30_oben
#     RBID     ISENS     NSKEW    ISPHER                MASS   Gnod_id     IKREM      ICOG   Surf_id
    203425         0         0         1                   0     77851         0         3         0
#                Jxx                 Jyy                 Jzz
                   0                   0                   0
#                Jxy                 Jyz                 Jxz
                   0                   0                   0
#  Ioptoff   Iexpams
         0         0
/GRNOD/GRNOD/77851
RBODY_group_77849_of_GRNOD
     77849     77850
/GRNOD/PART/77849
RBODY_group_77851_of_PART
        13
/GRNOD/NODE/77850
RBODY_group_77850_of_NODE
    100007
#---1----|----2----|----3----|----4----|----5----|----6----|----7----|----8----|----9----|---10----|
/RBODY/1007
KS2_0_unten
#     RBID     ISENS     NSKEW    ISPHER                MASS   Gnod_id     IKREM      ICOG   Surf_id
    203427         0         0         1                   0     77854         0         3         0
#                Jxx                 Jyy                 Jzz
                   0                   0                   0
#                Jxy                 Jyz                 Jxz
                   0                   0                   0
#  Ioptoff   Iexpams
         0         0
/GRNOD/GRNOD/77854
RBODY_group_77852_of_GRNOD
     77852     77853
/GRNOD/PART/77852
RBODY_group_77854_of_PART
        17
/GRNOD/NODE/77853
RBODY_group_77853_of_NODE
    100008
#---1----|----2----|----3----|----4----|----5----|----6----|----7----|----8----|----9----|---10----|
/RBODY/1008
KS2_0_oben
#     RBID     ISENS     NSKEW    ISPHER                MASS   Gnod_id     IKREM      ICOG   Surf_id
    203420         0         0         1                   0     77857         0         3         0
#                Jxx                 Jyy                 Jzz
                   0                   0                   0
#                Jxy                 Jyz                 Jxz
                   0                   0                   0
#  Ioptoff   Iexpams
         0         0
/GRNOD/GRNOD/77857
RBODY_group_77855_of_GRNOD
     77855     77856
/GRNOD/PART/77855
RBODY_group_77857_of_PART
        18
/GRNOD/NODE/77856
RBODY_group_77856_of_NODE
    100009
#---1----|----2----|----3----|----4----|----5----|----6----|----7----|----8----|----9----|---10----|
/RBODY/1009
KS2_peel_unten
#     RBID     ISENS     NSKEW    ISPHER                MASS   Gnod_id     IKREM      ICOG   Surf_id
    203419         0         0         1                   0     77860         0         3         0
#                Jxx                 Jyy                 Jzz
                   0                   0                   0
#                Jxy                 Jyz                 Jxz
                   0                   0                   0
#  Ioptoff   Iexpams
         0         0
/GRNOD/GRNOD/77860
RBODY_group_77858_of_GRNOD
     77858     77859
/GRNOD/PART/77858
RBODY_group_77860_of_PART
        22
/GRNOD/NODE/77859
RBODY_group_77859_of_NODE
    100002
#---1----|----2----|----3----|----4----|----5----|----6----|----7----|----8----|----9----|---10----|
/RBODY/1010
KS2_peel_oben
#     RBID     ISENS     NSKEW    ISPHER                MASS   Gnod_id     IKREM      ICOG   Surf_id
    203422         0         0         1                   0     77863         0         3         0
#                Jxx                 Jyy                 Jzz
                   0                   0                   0
#                Jxy                 Jyz                 Jxz
                   0                   0                   0
#  Ioptoff   Iexpams
         0         0
/GRNOD/GRNOD/77863
RBODY_group_77861_of_GRNOD
     77861     77862
/GRNOD/PART/77861
RBODY_group_77863_of_PART
        23
/GRNOD/NODE/77862
RBODY_group_77862_of_NODE
    100003
#---1----|----2----|----3----|----4----|----5----|----6----|----7----|----8----|----9----|---10----|
#- 10. IMPOSED VELOCITIES:
#---1----|----2----|----3----|----4----|----5----|----6----|----7----|----8----|----9----|---10----|
/IMPVEL/1
Velocity
#funct_IDT       Dir   skew_ID sensor_ID  grnod_ID  frame_ID     Icoor
         1         X         0         0     77866         0         0
#           Ascale_x            Fscale_Y              Tstart               Tstop
                   1                  .5                   0                   0
/GRNOD/NODE/77866
IMPVEL_group_77866_of_NODE
    110001    110003    110005    110007    110009
#---1----|----2----|----3----|----4----|----5----|----6----|----7----|----8----|----9----|---10----|
#- 11. SECTIONS:
#---1----|----2----|----3----|----4----|----5----|----6----|----7----|----8----|----9----|---10----|
/SECT/1
Peel
# node_ID1  node_ID2  node_ID3  grnod_ID    I_SAVE  Frame_ID                  Dt               alpha
     11274     11193    200302     77830         0         0                  .1                1.65
# File name
                                                                                                    
# grbricID           grshel_ID  grrus_ID grbeam_ID grsprinID grtrianID    Ninter              Iframe
         0               77829         0         0         0         0         0                  12
/GRNOD/NODE/77830
SECTION.5
     11010     11024     11025     11070     11178     11185     11189     11193     11235     11242
     11265     11266     11274     11281     11286     11291     11298     11302     11359     11400
     11402
/GRSHEL/SHEL/77829
SECTION.6
     11381     11383     11385     11387     11389     11391     11393     11395     11397     11399
     11401     11403     11405     11407     11408     11409     11410     11414     11416     11418
#---1----|----2----|----3----|----4----|----5----|----6----|----7----|----8----|----9----|---10----|
/SECT/2
KS2_90
# node_ID1  node_ID2  node_ID3  grnod_ID    I_SAVE  Frame_ID                  Dt               alpha
      9337      9003      9000     77822         0         0                  .1                1.65
# File name
                                                                                                    
# grbricID           grshel_ID  grrus_ID grbeam_ID grsprinID grtrianID    Ninter              Iframe
         0               77821         0         0         0         0         0                  12
/GRNOD/NODE/77822
SECTION.1
      9000      9003      9008      9025      9027      9028      9029      9036      9037      9041
      9043      9045      9048      9050      9337      9345      9351      9353      9366      9367
      9434      9724      9737      9741      9745      9746      9815      9824      9826      9841
      9845      9846      9847      9848      9849      9850      9851      9930      9935      9936
      9937      9938
/GRSHEL/SHEL/77821
SECTION.7
      9962      9964      9966      9968      9970      9972      9974      9976      9978      9980
      9982      9984      9986      9988      9989      9991      9993      9994      9997      9999
     10001     10003     10005     10006     10008     10011     10013     10015     10017     10018
     10019     10020     10021     10025     10027     10029     10030     10034     10036     10038
#---1----|----2----|----3----|----4----|----5----|----6----|----7----|----8----|----9----|---10----|
/SECT/3
KS2_60
# node_ID1  node_ID2  node_ID3  grnod_ID    I_SAVE  Frame_ID                  Dt               alpha
      6025      6059      6740     77824         0         0                  .1                1.65
# File name
                                                                                                    
# grbricID           grshel_ID  grrus_ID grbeam_ID grsprinID grtrianID    Ninter              Iframe
         0               77823         0         0         0         0         0                  12
/GRNOD/NODE/77824
SECTION.2
      6007      6015      6025      6028      6037      6046      6048      6053      6055      6059
      6062      6067      6070      6071      6196      6209      6210      6243      6547      6551
      6590      6673      6687      6708      6711      6716      6732      6735      6736      6738
      6739      6740      6746      6747      6763      6764      6765      6770      6773      6806
      6810      6822
/GRSHEL/SHEL/77823
SECTION.8
      6602      6604      6606      6608      6610      6612      6614      6616      6618      6620
      6622      6624      6626      6628      6629      6631      6633      6634      6637      6639
      6641      6643      6645      6646      6648      6651      6653      6655      6657      6658
      6659      6660      6661      6665      6667      6669      6670      6674      6676      6678
#---1----|----2----|----3----|----4----|----5----|----6----|----7----|----8----|----9----|---10----|
/SECT/4
KS2_30
# node_ID1  node_ID2  node_ID3  grnod_ID    I_SAVE  Frame_ID                  Dt               alpha
      3397      3131      3786     77826         0         0                  .1                1.65
# File name
                                                                                                    
# grbricID           grshel_ID  grrus_ID grbeam_ID grsprinID grtrianID    Ninter              Iframe
         0               77825         0         0         0         0         0                  12
/GRNOD/NODE/77826
SECTION.3
      3086      3092      3093      3118      3119      3126      3131      3141      3158      3172
      3175      3397      3416      3442      3443      3676      3682      3690      3691      3701
      3702      3718      3722      3726      3727      3733      3756      3763      3765      3778
      3782      3783      3784      3785      3786      3787      3788      3808      3813      3814
      3815      3816
/GRSHEL/SHEL/77825
SECTION.9
      3602      3604      3606      3608      3610      3612      3614      3616      3618      3620
      3622      3624      3626      3628      3629      3631      3633      3634      3637      3639
      3641      3643      3645      3646      3648      3651      3653      3655      3657      3658
      3659      3660      3661      3665      3667      3669      3670      3674      3676      3678
#---1----|----2----|----3----|----4----|----5----|----6----|----7----|----8----|----9----|---10----|
/SECT/5
KS2_00
# node_ID1  node_ID2  node_ID3  grnod_ID    I_SAVE  Frame_ID                  Dt               alpha
      1403      1176      1109     77828         0         0                  .1                1.65
# File name
                                                                                                    
# grbricID           grshel_ID  grrus_ID grbeam_ID grsprinID grtrianID    Ninter              Iframe
         0               77827         0         0         0         0         0                  12
/GRNOD/NODE/77828
SECTION.4
      1109      1112      1114      1125      1126      1127      1132      1141      1164      1176
      1178      1403      1424      1429      1453      1673      1676      1683      1689      1704
      1707      1718      1722      1726      1727      1733      1756      1763      1765      1778
      1782      1783      1784      1785      1786      1787      1788      1808      1813      1814
      1815      1816
/GRSHEL/SHEL/77827
SECTION.10
      1602      1604      1606      1608      1610      1612      1614      1616      1618      1620
      1622      1624      1626      1628      1629      1631      1633      1634      1637      1639
      1641      1643      1645      1646      1648      1651      1653      1655      1657      1658
      1659      1660      1661      1665      1667      1669      1670      1674      1676      1678
#---1----|----2----|----3----|----4----|----5----|----6----|----7----|----8----|----9----|---10----|
#- 12. TIME HISTORIES:
#---1----|----2----|----3----|----4----|----5----|----6----|----7----|----8----|----9----|---10----|
/TH/PART/11
NULL
#     var1      var2      var3      var4      var5      var6      var7      var8      var9     var10
DEF       
#     Obj1      Obj2      Obj3      Obj4      Obj5      Obj6      Obj7      Obj8      Obj9     Obj10
         2         3         4         5         7         8         9        10        12        13
        14        15        17        18        19        20        22        23        24        25
#---1----|----2----|----3----|----4----|----5----|----6----|----7----|----8----|----9----|---10----|
/TH/INTER/12
TH INTER
#     var1      var2      var3      var4      var5      var6      var7      var8      var9     var10
DEF       
#     Obj1      Obj2      Obj3      Obj4      Obj5      Obj6      Obj7      Obj8      Obj9     Obj10
         1
#---1----|----2----|----3----|----4----|----5----|----6----|----7----|----8----|----9----|---10----|
/TH/SECTIO/15
KS2_90
#     var1      var2      var3      var4      var5      var6      var7      var8      var9     var10
DEF       
#     Obj1      Obj2      Obj3      Obj4      Obj5      Obj6      Obj7      Obj8      Obj9     Obj10
         2
#---1----|----2----|----3----|----4----|----5----|----6----|----7----|----8----|----9----|---10----|
/TH/SECTIO/16
KS2_60
#     var1      var2      var3      var4      var5      var6      var7      var8      var9     var10
DEF       
#     Obj1      Obj2      Obj3      Obj4      Obj5      Obj6      Obj7      Obj8      Obj9     Obj10
         3
#---1----|----2----|----3----|----4----|----5----|----6----|----7----|----8----|----9----|---10----|
/TH/SECTIO/17
KS2_30
#     var1      var2      var3      var4      var5      var6      var7      var8      var9     var10
DEF       
#     Obj1      Obj2      Obj3      Obj4      Obj5      Obj6      Obj7      Obj8      Obj9     Obj10
         4
#---1----|----2----|----3----|----4----|----5----|----6----|----7----|----8----|----9----|---10----|
/TH/SECTIO/18
KS2_00
#     var1      var2      var3      var4      var5      var6      var7      var8      var9     var10
DEF       
#     Obj1      Obj2      Obj3      Obj4      Obj5      Obj6      Obj7      Obj8      Obj9     Obj10
         5
#---1----|----2----|----3----|----4----|----5----|----6----|----7----|----8----|----9----|---10----|
/TH/SECTIO/19
SK2_Peel
#     var1      var2      var3      var4      var5      var6      var7      var8      var9     var10
DEF       
#     Obj1      Obj2      Obj3      Obj4      Obj5      Obj6      Obj7      Obj8      Obj9     Obj10
         1
#---1----|----2----|----3----|----4----|----5----|----6----|----7----|----8----|----9----|---10----|
/TH/NODE/21
Local_disp_90
#     var1      var2      var3      var4      var5      var6      var7      var8      var9     var10
DEF       
#    NODid     Iskew                                           NODname
      9574         0Node_top                                                                        
      9849         0Node_bottom                                                                     
#---1----|----2----|----3----|----4----|----5----|----6----|----7----|----8----|----9----|---10----|
/TH/NODE/22
Local_disp_60
#     var1      var2      var3      var4      var5      var6      var7      var8      var9     var10
DEF       
#    NODid     Iskew                                           NODname
      6574         0Node_top                                                                        
      6740         0Node_bottom                                                                     
#---1----|----2----|----3----|----4----|----5----|----6----|----7----|----8----|----9----|---10----|
/TH/NODE/23
Local_disp_30
#     var1      var2      var3      var4      var5      var6      var7      var8      var9     var10
DEF       
#    NODid     Iskew                                           NODname
      3547         0Node_top                                                                        
      3786         0Node_bottom                                                                     
#---1----|----2----|----3----|----4----|----5----|----6----|----7----|----8----|----9----|---10----|
/TH/NODE/24
Local_disp_0
#     var1      var2      var3      var4      var5      var6      var7      var8      var9     var10
DEF       
#    NODid     Iskew                                           NODname
      1472         0Node_top                                                                        
      1786         0Node_bottom                                                                     
#---1----|----2----|----3----|----4----|----5----|----6----|----7----|----8----|----9----|---10----|
/TH/NODE/25
Local_disp_peel
#     var1      var2      var3      var4      var5      var6      var7      var8      var9     var10
DEF       
#    NODid     Iskew                                           NODname
     11010         0Node_bottom                                                                     
     11074         0Node_top                                                                        
#---1----|----2----|----3----|----4----|----5----|----6----|----7----|----8----|----9----|---10----|
/END
#---1----|----2----|----3----|----4----|----5----|----6----|----7----|----8----|----9----|---10----|
