#RADIOSS STARTER
/BEGIN
MAT36_sheetmetal.inc                                                            
      2018         0
                  kg                  mm                  ms
                  kg                  mm                  ms
#---1----|----2----|----3----|----4----|----5----|----6----|----7----|----8----|----9----|---10----|
#---1----|----2----|----3----|----4----|----5----|----6----|----7----|----8----|----9----|---10----|
#-  1. MATERIALS:
#---1----|----2----|----3----|----4----|----5----|----6----|----7----|----8----|----9----|---10----|
/MAT/PLAS_TAB/3/1
MAT_PIECEWISE_LINEAR_PLASTICITY_3
#              RHO_I
             7.85E-6                   0
#                  E                  Nu           Eps_p_max               Eps_t               Eps_m
                 210                  .3                   0                   0                   0
#  N_funct  F_smooth              C_hard               F_cut               Eps_f                  VP
         1         1                   0                   0                   0                   0
#  fct_IDp              Fscale   Fct_IDE                EInf                  CE
         0                   0         0                   0                   0
# func_ID1  func_ID2  func_ID3  func_ID4  func_ID5
       101
#           Fscale_1            Fscale_2            Fscale_3            Fscale_4            Fscale_5
                   1
#          Eps_dot_1           Eps_dot_2           Eps_dot_3           Eps_dot_4           Eps_dot_5
                   0
#---1----|----2----|----3----|----4----|----5----|----6----|----7----|----8----|----9----|---10----|
#-  2. LOCAL_UNIT_SYSTEM:
#---1----|----2----|----3----|----4----|----5----|----6----|----7----|----8----|----9----|---10----|
/UNIT/1
unit for mat
#              MUNIT               LUNIT               TUNIT
                  kg                  mm                  ms
#---1----|----2----|----3----|----4----|----5----|----6----|----7----|----8----|----9----|---10----|
#-  3. FUNCTIONS:
#---1----|----2----|----3----|----4----|----5----|----6----|----7----|----8----|----9----|---10----|
/FUNCT/101
DEFINE_CURVE of ID 101
#                  X                   Y
                   0             .370369
                 .01             .415373
                 .02             .434102
                 .03             .448488
                 .04             .460625
                 .05             .471323
                 .06             .480999
                 .07               .4899
                 .08             .498187
                 .09             .505972
                  .1             .513337
                  .2             .572835
                 .36             .642322
                 .52             .697455
                 .68             .744606
                 .84             .786485
                   1             .824546
#---1----|----2----|----3----|----4----|----5----|----6----|----7----|----8----|----9----|---10----|
#enddata
/END
#---1----|----2----|----3----|----4----|----5----|----6----|----7----|----8----|----9----|---10----|
