#RADIOSS STARTER
#--------------------------------------------------------------------------------------------------|
#- RADIOSS DECK WRITTEN BY HyperCrash
#HyperCrash 14.0 (64 bits) 
#Sun Dec 13 12:51:50 2015
#-
#
#
#-
#- DATE	Sun Dec 13 12:51:50 2015
#--------------------------------------------------------------------------------------------------|
#---1----|----2----|----3----|----4----|----5----|----6----|----7----|----8----|----9----|---10----|
/BEGIN
SNAP_EXP                                                                        
       140         0
                   g                  mm                  ms
                   g                  mm                  ms
#---1----|----2----|----3----|----4----|----5----|----6----|----7----|----8----|----9----|---10----|
#-  1. CONTROL CARDS:
#---1----|----2----|----3----|----4----|----5----|----6----|----7----|----8----|----9----|---10----|
/TITLE
Triangular mesh
#---1----|----2----|----3----|----4----|----5----|----6----|----7----|----8----|----9----|---10----|
/ANALY
#    N2D3D             IPARITH      ISUB
         0                   0         0
#---1----|----2----|----3----|----4----|----5----|----6----|----7----|----8----|----9----|---10----|
/DEF_SHELL
#   ISHELL    ISMSTR    ITHICK     IPLAS   ISTRAIN                        I_SH3N     IDRIL
         3         0         0         0         1                             0         0
#---1----|----2----|----3----|----4----|----5----|----6----|----7----|----8----|----9----|---10----|
/DEF_SOLID
#  I_SOLID    ISMSTR             ISTRAIN                                  IFRAME
         0         0                   0                                       0
#---1----|----2----|----3----|----4----|----5----|----6----|----7----|----8----|----9----|---10----|
/IOFLAG
#     IPRI               IGTYP     IOUTP    IOUTYY   IROOTYY     IDROT
         5                   0         0         0         0         0
#---1----|----2----|----3----|----4----|----5----|----6----|----7----|----8----|----9----|---10----|
/SPMD
#   DOMDEC     Nproc              Dkword             Nthread
         0         0                   0                   1
#---1----|----2----|----3----|----4----|----5----|----6----|----7----|----8----|----9----|---10----|
#-  2. MATERIALS:
#---1----|----2----|----3----|----4----|----5----|----6----|----7----|----8----|----9----|---10----|
/MAT/ELAST/1
mat_1
#              RHO_I
              .00785                   0
#                  E                  nu
             3102.75                  .3
#---1----|----2----|----3----|----4----|----5----|----6----|----7----|----8----|----9----|---10----|
#-  3. NODES:
#---1----|----2----|----3----|----4----|----5----|----6----|----7----|----8----|----9----|---10----|
/NODE
         1          253.595495                 254          2527.30871
         2          253.595495             211.667          2527.30871
         3          253.595495             169.333          2527.30871
         4          253.595495                 127          2527.30871
         5          253.595495              84.667          2527.30871
         6          253.595495              42.333          2527.30871
         7          253.595495                   0          2527.30871
         8          211.437776                 254          2531.18413
         9          211.437776             211.667          2531.18413
        10          211.437776             169.333          2531.18413
        11          211.437776                 127          2531.18413
        12          211.437776              84.667          2531.18413
        13          211.437776              42.333          2531.18413
        14          211.437776                   0          2531.18413
        15          169.220614                 254          2534.35698
        16          169.220614             211.667          2534.35698
        17          169.220614             169.333          2534.35698
        18          169.220614                 127          2534.35698
        19          169.220614              84.667          2534.35698
        20          169.220614              42.333          2534.35698
# ... 30 like lines cut
#---1----|----2----|----3----|----4----|----5----|----6----|----7----|----8----|----9----|---10----|
#-  4. BOUNDARY CONDITIONS:
#---1----|----2----|----3----|----4----|----5----|----6----|----7----|----8----|----9----|---10----|
/BCS/1
BC
#  Tra rot   skew_ID  grnod_ID
   100 011         0         2
/GRNOD/NODE/2
BC
        43        44        45        46        47        48
#---1----|----2----|----3----|----4----|----5----|----6----|----7----|----8----|----9----|---10----|
/BCS/2
CD
#  Tra rot   skew_ID  grnod_ID
   010 101         0         3
/GRNOD/NODE/3
CD
        14        21        28        35        42
#---1----|----2----|----3----|----4----|----5----|----6----|----7----|----8----|----9----|---10----|
/BCS/3
P
#  Tra rot   skew_ID  grnod_ID
   110 111         0         4
/GRNOD/NODE/4
P
        50
#---1----|----2----|----3----|----4----|----5----|----6----|----7----|----8----|----9----|---10----|
/BCS/4
DA
#  Tra rot   skew_ID  grnod_ID
   111 100         0         7
/GRNOD/NODE/7
DA
         1         2         3         4         5         6
#---1----|----2----|----3----|----4----|----5----|----6----|----7----|----8----|----9----|---10----|
/BCS/5
D
#  Tra rot   skew_ID  grnod_ID
   111 101         0         8
/GRNOD/NODE/8
D
         7
#---1----|----2----|----3----|----4----|----5----|----6----|----7----|----8----|----9----|---10----|
#-  5. SKEWS & FRAMES:
#---1----|----2----|----3----|----4----|----5----|----6----|----7----|----8----|----9----|---10----|
/SKEW/FIX/1
local extremities
#                 OX                  OY                  OZ
                   0                   0                   0
#                 X1                  Y1                  Z1
                   1                   0                   0
#                 X2                  Y2                  Z2
                   0                   1                   0
#---1----|----2----|----3----|----4----|----5----|----6----|----7----|----8----|----9----|---10----|
#-  6. PARTS:
#---1----|----2----|----3----|----4----|----5----|----6----|----7----|----8----|----9----|---10----|
/PART/1
ROOF
         1         1         1
#---1----|----2----|----3----|----4----|----5----|----6----|----7----|----8----|----9----|---10----|
# SH3N elements of /PART/1/ROOF:
#---1----|----2----|----3----|----4----|----5----|----6----|----7----|----8----|----9----|---10----|
/SH3N/1
        37         1         8         2                                                           0
        38         8         9         2                                                           0
        39         2         9         3                                                           0
        40         9        10         3                                                           0
        41         3        10         4                                                           0
        42        10        11         4                                                           0
        43         4        11         5                                                           0
        44        11        12         5                                                           0
        45         5        12         6                                                           0
        46        12        13         6                                                           0
        47         6        13         7                                                           0
        48        13        14         7                                                           0
        49         8        15         9                                                           0
        50        15        16         9                                                           0
        51         9        16        10                                                           0
        52        16        17        10                                                           0
        53        10        17        11                                                           0
        54        17        18        11                                                           0
        55        11        18        12                                                           0
        56        18        19        12                                                           0
# ... 52 like lines cut
#---1----|----2----|----3----|----4----|----5----|----6----|----7----|----8----|----9----|---10----|
#-  7. SUBSETS:
#---1----|----2----|----3----|----4----|----5----|----6----|----7----|----8----|----9----|---10----|
/SUBSET/1
ROOF
#---1----|----2----|----3----|----4----|----5----|----6----|----7----|----8----|----9----|---10----|
#-  8. GEOMETRICAL SETS:
#---1----|----2----|----3----|----4----|----5----|----6----|----7----|----8----|----9----|---10----|
/PROP/SHELL/1
Q4 type 3
#   Ishell    Ismstr     Ish3n    Idrill
         3         0         0         0
#                 hm                  hf                  hr                  dm                  dn
                 .01                 .01                   0                   0                   0
#        N   Istrain               Thick              Ashear              Ithick     Iplas
         0         0                12.7               .8333                   0         0
#---1----|----2----|----3----|----4----|----5----|----6----|----7----|----8----|----9----|---10----|
#-  9. FUNCTIONS:
#---1----|----2----|----3----|----4----|----5----|----6----|----7----|----8----|----9----|---10----|
/FUNCT/1
impvel
#                  X                   Y
                -500                .001                                                            
                 500                .001                                                            
                4500                .001                                                            
                5500                .001                                                            
               10000                .001                                                            
#---1----|----2----|----3----|----4----|----5----|----6----|----7----|----8----|----9----|---10----|
#- 10. RIGID BODIES:
#---1----|----2----|----3----|----4----|----5----|----6----|----7----|----8----|----9----|---10----|
/RBODY/1
P
#     RBID     ISENS     NSKEW    ISPHER                MASS   Gnod_id     IKREM      ICOG   Surf_id
        50         0         0         0                   0         9         0         0         0
#                Jxx                 Jyy                 Jzz
                   0                   0                   0
#                Jxy                 Jyz                 Jxz
                   0                   0                   0
#Ioptoff
         0
/GRNOD/NODE/9
P_slave
        49
#---1----|----2----|----3----|----4----|----5----|----6----|----7----|----8----|----9----|---10----|
#- 11. IMPOSED VELOCITIES:
#---1----|----2----|----3----|----4----|----5----|----6----|----7----|----8----|----9----|---10----|
/IMPVEL/1
P
#funct_IDT       Dir   skew_ID sensor_ID  grnod_ID  frame_ID     Icoor
         1         Z         0         0        10         0         0
#           Ascale_x            Fscale_Y              Tstart               Tstop
                   0                 -10                   0                   0
/GRNOD/NODE/10
P
        50
#---1----|----2----|----3----|----4----|----5----|----6----|----7----|----8----|----9----|---10----|
#- 12. NODE GROUPS:
#---1----|----2----|----3----|----4----|----5----|----6----|----7----|----8----|----9----|---10----|
/GRNOD/NODE/11
GRNOD 11
        43
#---1----|----2----|----3----|----4----|----5----|----6----|----7----|----8----|----9----|---10----|
/GRNOD/NODE/12
GRNOD 12
         1
#---1----|----2----|----3----|----4----|----5----|----6----|----7----|----8----|----9----|---10----|
#- 13. TIME HISTORIES:
#---1----|----2----|----3----|----4----|----5----|----6----|----7----|----8----|----9----|---10----|
/TH/PART/1
Part selection for time history
#     var1      var2      var3      var4      var5      var6      var7      var8      var9     var10
DEF       
#     Obj1      Obj2      Obj3      Obj4      Obj5      Obj6      Obj7      Obj8      Obj9     Obj10
         1
#---1----|----2----|----3----|----4----|----5----|----6----|----7----|----8----|----9----|---10----|
/TH/RBODY/3
TH for P
#     var1      var2      var3      var4      var5      var6      var7      var8      var9     var10
DEF       
#     Obj1      Obj2      Obj3      Obj4      Obj5      Obj6      Obj7      Obj8      Obj9     Obj10
         1
#---1----|----2----|----3----|----4----|----5----|----6----|----7----|----8----|----9----|---10----|
/TH/NODE/4
Node C
#     var1      var2      var3      var4      var5      var6      var7      var8      var9     var10
DEF       DZ        
#    NODid     Iskew                                           NODname
        49         0Node C_group_0                                                                  
#---1----|----2----|----3----|----4----|----5----|----6----|----7----|----8----|----9----|---10----|
/END
#---1----|----2----|----3----|----4----|----5----|----6----|----7----|----8----|----9----|---10----|
