#RADIOSS STARTER
#--------------------------------------------------------------------------------------------------|
#- RADIOSS DECK WRITTEN BY HyperCrash
#HyperCrash 14.0 (64 bits) 
#Mon Dec 21 14:59:13 2015
#-
#--------------------------------------------------------------------------------------------------|
#- RADIOSS DECK WRITTEN BY HyperCrash
#HyperCrash 13.0.110 (64 bits)
#Thu Apr 16 15:09:07 2015
#-
#-
#- DATE	Thu Apr 16 15:09:07 2015
#--------------------------------------------------------------------------------------------------|
#---1----|----2----|----3----|----4----|----5----|----6----|----7----|----8----|----9----|---10----|
#-
#- DATE	Mon Dec 21 14:59:13 2015
#--------------------------------------------------------------------------------------------------|
#---1----|----2----|----3----|----4----|----5----|----6----|----7----|----8----|----9----|---10----|
/BEGIN
foam_relax                                                                      
       140         0
                  Mg                  mm                   s
                  Mg                  mm                   s
#---1----|----2----|----3----|----4----|----5----|----6----|----7----|----8----|----9----|---10----|
#-  1. CONTROL CARDS:
#---1----|----2----|----3----|----4----|----5----|----6----|----7----|----8----|----9----|---10----|
/TITLE
Dominca Tube at Dominca Altitude
#---1----|----2----|----3----|----4----|----5----|----6----|----7----|----8----|----9----|---10----|
/ANALY
#    N2D3D             IPARITH      ISUB
         0                   0         0
#---1----|----2----|----3----|----4----|----5----|----6----|----7----|----8----|----9----|---10----|
/DEF_SHELL
#   ISHELL    ISMSTR    ITHICK     IPLAS   ISTRAIN                        I_SH3N     IDRIL
         0         0         0         0         0                             0         0
#---1----|----2----|----3----|----4----|----5----|----6----|----7----|----8----|----9----|---10----|
/DEF_SOLID
#  I_SOLID    ISMSTR             ISTRAIN                                  IFRAME
         0         0                   0                                       0
#---1----|----2----|----3----|----4----|----5----|----6----|----7----|----8----|----9----|---10----|
/IOFLAG
#     IPRI               IGTYP     IOUTP    IOUTYY   IROOTYY     IDROT
         5                   0         0         0         0         0
#---1----|----2----|----3----|----4----|----5----|----6----|----7----|----8----|----9----|---10----|
/SPMD
#   DOMDEC     Nproc              Dkword             Nthread
         0         0                   0                   0
#---1----|----2----|----3----|----4----|----5----|----6----|----7----|----8----|----9----|---10----|
#-  2. MATERIALS:
#---1----|----2----|----3----|----4----|----5----|----6----|----7----|----8----|----9----|---10----|
/MAT/KELVINMAX/3
LAW40 elastic rubber
#              RHO_I
                2E-9                   0
#                  K               G_inf              Astass              Bstass                 Kvm
               66.67                  10                   0                   0                   0
#                 G1                  G2                  G3                  G4                  G5
                  90                   0                   0                   0                   0
#              BETA1               BETA2               BETA3               BETA4               BETA5
                 .01                   0                   0                   0                   0
#---1----|----2----|----3----|----4----|----5----|----6----|----7----|----8----|----9----|---10----|
#-  3. NODES:
#---1----|----2----|----3----|----4----|----5----|----6----|----7----|----8----|----9----|---10----|
/NODE
       819                   1     86.410213562373     14.899494936612
       820                   4     84.035745408745     12.353254812414
       821                  -2     77.819530227974     11.963608179313
       822                  -2     75.145603036067     3.2868513413809
       823                  -5     84.035745408745     12.353254812414
       824                  -5     86.144623293817     13.037482729663
       825                   4     87.977344991864     11.790333933403
       826                  -5     80.319232818268     13.839489159852
       827                   4       81.8351626787     11.291773836608
       828                   1     78.205668748267     7.9813465866794
       829                  -5     75.145603036067     3.2868513413809
       830                   1     76.958520786644     6.1486266189109
       831                   7     75.145603036067     3.2868513413809
       832                   4     86.410213562373     14.899494936612
       833                  -2     84.035745408745     12.353254812414
       834                   1     77.819530227974     11.963608179313
       835                  -2     76.019329654428     9.4054053430943
       836                   7     87.977344991864     11.790333933403
       837                  -2     80.319232818268     13.839489159852
       838                  -5     76.019329654428     9.4054053430943
# ... 318 like lines cut
#---1----|----2----|----3----|----4----|----5----|----6----|----7----|----8----|----9----|---10----|
#-  4. BOUNDARY CONDITIONS:
#---1----|----2----|----3----|----4----|----5----|----6----|----7----|----8----|----9----|---10----|
/BCS/3
40_fix
#  Tra rot   skew_ID  grnod_ID
   111 111         0        10
/GRNOD/NODE/10
BCS_group_10_of_NODE
      1488
#---1----|----2----|----3----|----4----|----5----|----6----|----7----|----8----|----9----|---10----|
/BCS/4
40_move
#  Tra rot   skew_ID  grnod_ID
   011 111         0        11
/GRNOD/NODE/11
BCS_group_11_of_NODE
      1489
#---1----|----2----|----3----|----4----|----5----|----6----|----7----|----8----|----9----|---10----|
#-  5. PARTS:
#---1----|----2----|----3----|----4----|----5----|----6----|----7----|----8----|----9----|---10----|
/PART/3
LAW40
         1         3         0
#---1----|----2----|----3----|----4----|----5----|----6----|----7----|----8----|----9----|---10----|
# BRICK elements of /PART/3/LAW40:
#---1----|----2----|----3----|----4----|----5----|----6----|----7----|----8----|----9----|---10----|
/BRICK/3
       594       972       962       963       973       974       964       965       975
       595      1085      1086       970       980      1089      1090       972       982
       596      1081      1082       968       978      1085      1086       970       980
       597      1077      1078       966       976      1081      1082       968       978
       598       940       935       925       926      1077      1078       966       976
       599       970       960       961       971       972       962       963       973
       600       968       958       959       969       970       960       961       971
       601       966       956       957       967       968       958       959       969
       602       925       924       903       902       966       956       957       967
       603       962       952       953       963       964       954       955       965
       604       960       880       951       961       962       952       953       963
       605       958       825       865       959       960       880       951       961
       606       956       836       864       957       958       825       865       959
       607       924       923       904       903       956       836       864       957
       608       952       881       848       953       954       824       840       955
       609       880       850       819       951       952       881       848       953
       610       825       872       832       865       880       850       819       951
       611       836       874       882       864       825       872       832       865
       612       923       917       905       904       836       874       882       864
       613       881       833       861       848       824       823       860       840
# ... 205 like lines cut
#---1----|----2----|----3----|----4----|----5----|----6----|----7----|----8----|----9----|---10----|
#-  6. GEOMETRICAL SETS:
#---1----|----2----|----3----|----4----|----5----|----6----|----7----|----8----|----9----|---10----|
/PROP/SOLID/1
Solid ptoperty
#   Isolid    Ismstr               Icpre               Inpts    Itetra    Iframe                  dn
        24         1                   0                   0         0         0                   0
#                q_a                 q_b                   h            LAMBDA_V                MU_V
                   0                   0                   0                   0                   0
#             dt_min   istrain      IHKT
                   0         0         0
#---1----|----2----|----3----|----4----|----5----|----6----|----7----|----8----|----9----|---10----|
#-  7. FUNCTIONS:
#---1----|----2----|----3----|----4----|----5----|----6----|----7----|----8----|----9----|---10----|
/FUNCT/2
cload
#                  X                   Y
                   0                   0                                                            
                   1                  14                                                            
                 100                  14                                                            
#---1----|----2----|----3----|----4----|----5----|----6----|----7----|----8----|----9----|---10----|
#-  8. CONCENTRATED LOADS:
#---1----|----2----|----3----|----4----|----5----|----6----|----7----|----8----|----9----|---10----|
/CLOAD/2
load
#funct_IDT       Dir   skew_ID sensor_ID  grnod_ID                       Ascalex             Fscaley
         2         X         0         0        14                             0                   1
/GRNOD/NODE/14
IMPDISP_group_14_of_NODE
      1489
#---1----|----2----|----3----|----4----|----5----|----6----|----7----|----8----|----9----|---10----|
#-  9. INTERFACES:
#---1----|----2----|----3----|----4----|----5----|----6----|----7----|----8----|----9----|---10----|
/INTER/TYPE7/1
New INTER 1
#  Slav_id   Mast_id      Istf      Ithe      Igap                Ibag      Idel     Icurv      Iadm
        17        16         0         0         0                   0         0         0         0
#          Fscalegap             GAP_MAX             Fpenmax
                   0                   0                   0
#              Stmin               Stmax          %mesh_size               dtmin  Irem_gap
                   0                   0                   0                   0         0
#              Stfac                Fric              Gapmin              Tstart               Tstop
                   0                 .15                   0                   0                   0
#      IBC                        Inacti                VisS                VisF              Bumult
       000                             1                   0                   0                   0
#    Ifric    Ifiltr               Xfreq     Iform   sens_ID
         0         0                   0         0         0
/GRNOD/SURF/17
INTER_group_17_of_SURF
        16
/SURF/PART/EXT/16
INTER_group_16_of_PART
         3
#---1----|----2----|----3----|----4----|----5----|----6----|----7----|----8----|----9----|---10----|
#- 10. RIGID BODIES:
#---1----|----2----|----3----|----4----|----5----|----6----|----7----|----8----|----9----|---10----|
/RBODY/1488
40_fix
#     RBID     ISENS     NSKEW    ISPHER                MASS   Gnod_id     IKREM      ICOG   Surf_id
      1488         0         0         0                   0         7         0         0         0
#                Jxx                 Jyy                 Jzz
                   0                   0                   0
#                Jxy                 Jyz                 Jxz
                   0                   0                   0
#Ioptoff
         0
/GRNOD/NODE/7
RBODY_group_7_of_NODE
       823       824       826       829       838       840       845       854       859       860
       866       876       878       891       954       955       964       965       974       975
       984       985       994       995      1004      1005      1014      1015      1024      1025
      1034      1035      1044      1045      1054      1055      1064      1065      1074      1075
      1092      1093      1094      1095      1104      1105      1114      1115      1124      1125
      1134      1135      1140      1145      1150      1155
#---1----|----2----|----3----|----4----|----5----|----6----|----7----|----8----|----9----|---10----|
/RBODY/1489
40_move
#     RBID     ISENS     NSKEW    ISPHER                MASS   Gnod_id     IKREM      ICOG   Surf_id
      1489         0         0         0                   0         8         0         0         0
#                Jxx                 Jyy                 Jzz
                   0                   0                   0
#                Jxy                 Jyz                 Jxz
                   0                   0                   0
#Ioptoff
         0
/GRNOD/NODE/8
RBODY_group_8_of_NODE
       841       896       897       898       899       900       901       902       903       904
       905       906       907       908       909       910       911       912       913       914
       915       916       917       918       919       920       921       922       923       924
       925       926       927       928       929       930       931       932       933       934
       935       936       937       938       939       940       941       942       943       944
       945       946       947       948       949       950
#---1----|----2----|----3----|----4----|----5----|----6----|----7----|----8----|----9----|---10----|
#- 11. SECTIONS:
#---1----|----2----|----3----|----4----|----5----|----6----|----7----|----8----|----9----|---10----|
/SECT/2
40
# node_ID1  node_ID2  node_ID3  grnod_ID    I_SAVE  Frame_ID                  Dt               alpha
      1100       828       819        21         0         0                1E-4                1650
# File name
                                                                                                    
# grbricID           grshel_ID  grrus_ID grbeam_ID grsprinID grtrianID    Ninter              Iframe
        20                   0         0         0         0         0         0                  12
/GRNOD/NODE/21
SECTION
       819       828       830       834       839       842       850       851       855       870
       875       880       883       885       887       951       960       961       970       971
       980       981       990       991      1000      1001      1010      1011      1020      1021
      1030      1031      1040      1041      1050      1051      1060      1061      1070      1071
      1084      1085      1086      1087      1100      1101      1110      1111      1120      1121
      1130      1131      1138      1143      1148      1153
/GRBRIC/BRIC/20
SECTION
       595       599       604       609       615       620       625       630       635       640
       645       650       655       660       665       670       674       679       684       689
       694       699       707       712       717       722       727       732       737       742
       747       752       757       762       767       772       777       782       787       792
       797       802       807       812       817
#---1----|----2----|----3----|----4----|----5----|----6----|----7----|----8----|----9----|---10----|
#- 12. TIME HISTORIES:
#---1----|----2----|----3----|----4----|----5----|----6----|----7----|----8----|----9----|---10----|
/TH/RBODY/6
40_fix
#     var1      var2      var3      var4      var5      var6      var7      var8      var9     var10
DEF       
#     Obj1      Obj2      Obj3      Obj4      Obj5      Obj6      Obj7      Obj8      Obj9     Obj10
      1488
#---1----|----2----|----3----|----4----|----5----|----6----|----7----|----8----|----9----|---10----|
/TH/NODE/7
40_fix
#     var1      var2      var3      var4      var5      var6      var7      var8      var9     var10
DEF       
#    NODid     Iskew                                           NODname
      1488         040_fix                                                                          
#---1----|----2----|----3----|----4----|----5----|----6----|----7----|----8----|----9----|---10----|
/TH/RBODY/8
40_move
#     var1      var2      var3      var4      var5      var6      var7      var8      var9     var10
DEF       
#     Obj1      Obj2      Obj3      Obj4      Obj5      Obj6      Obj7      Obj8      Obj9     Obj10
      1489
#---1----|----2----|----3----|----4----|----5----|----6----|----7----|----8----|----9----|---10----|
/TH/NODE/9
40_move
#     var1      var2      var3      var4      var5      var6      var7      var8      var9     var10
DEF       
#    NODid     Iskew                                           NODname
      1489         040_move                                                                         
#---1----|----2----|----3----|----4----|----5----|----6----|----7----|----8----|----9----|---10----|
/TH/BRIC/10
bricks
#     var1      var2      var3      var4      var5      var6      var7      var8      var9     var10
DEF       EPSXX     EPSYY     EPSZZ     
#     Elid                                                      Elname
       800           LAW40 	                                                                        
       606           LAW40                                                                          
#---1----|----2----|----3----|----4----|----5----|----6----|----7----|----8----|----9----|---10----|
/TH/SECTIO/12
SECTION_2
#     var1      var2      var3      var4      var5      var6      var7      var8      var9     var10
DEF       
#     Obj1      Obj2      Obj3      Obj4      Obj5      Obj6      Obj7      Obj8      Obj9     Obj10
         2
#---1----|----2----|----3----|----4----|----5----|----6----|----7----|----8----|----9----|---10----|
/END
#---1----|----2----|----3----|----4----|----5----|----6----|----7----|----8----|----9----|---10----|
