#RADIOSS STARTER
#--------------------------------------------------------------------------------------------------|
#- RADIOSS DECK WRITTEN BY HyperCrash
#HyperCrash 14.0 (64 bits) 
#Sun Dec 13 12:57:49 2015
#-
#
#
#-
#- DATE	Sun Dec 13 12:57:49 2015
#--------------------------------------------------------------------------------------------------|
#---1----|----2----|----3----|----4----|----5----|----6----|----7----|----8----|----9----|---10----|
/BEGIN
FRAME                                                                           
       140         0
                  kg                   m                   s
                  kg                   m                   s
#---1----|----2----|----3----|----4----|----5----|----6----|----7----|----8----|----9----|---10----|
#-  1. CONTROL CARDS:
#---1----|----2----|----3----|----4----|----5----|----6----|----7----|----8----|----9----|---10----|
/TITLE
beam frame 10 elements/segment
#---1----|----2----|----3----|----4----|----5----|----6----|----7----|----8----|----9----|---10----|
/ANALY
#    N2D3D             IPARITH      ISUB
         0                   0         0
#---1----|----2----|----3----|----4----|----5----|----6----|----7----|----8----|----9----|---10----|
/DEF_SHELL
#   ISHELL    ISMSTR    ITHICK     IPLAS   ISTRAIN                        I_SH3N     IDRIL
         0         0         0         0         0                             1         0
#---1----|----2----|----3----|----4----|----5----|----6----|----7----|----8----|----9----|---10----|
/DEF_SOLID
#  I_SOLID    ISMSTR             ISTRAIN                                  IFRAME
         0         0                   0                                       0
#---1----|----2----|----3----|----4----|----5----|----6----|----7----|----8----|----9----|---10----|
/IOFLAG
#     IPRI               IGTYP     IOUTP    IOUTYY   IROOTYY     IDROT
         5                   0         0         0         0         0
#---1----|----2----|----3----|----4----|----5----|----6----|----7----|----8----|----9----|---10----|
/SHFRA/V4
#---1----|----2----|----3----|----4----|----5----|----6----|----7----|----8----|----9----|---10----|
/SPMD
#   DOMDEC     Nproc              Dkword             Nthread
         0         0                   0                   1
#---1----|----2----|----3----|----4----|----5----|----6----|----7----|----8----|----9----|---10----|
#-  2. MATERIALS:
#---1----|----2----|----3----|----4----|----5----|----6----|----7----|----8----|----9----|---10----|
/MAT/PLAS_JOHNS/1
steel
#              RHO_I
               .0078               .0078
#                  E                  Nu
              200000                  .3
#                  a                   b                   n           EPS_p_max            SIG_max0
                 320              134.65                   1                   0                   0
#                  c           EPS_DOT_0       ICC   Fsmooth               F_cut               Chard
                   0                   0         0         0                   0                   0
#                  m              T_melt              rhoC_p                 T_r
                   0                   0                   0                   0
#---1----|----2----|----3----|----4----|----5----|----6----|----7----|----8----|----9----|---10----|
#-  3. NODES:
#---1----|----2----|----3----|----4----|----5----|----6----|----7----|----8----|----9----|---10----|
/NODE
         1                -135                   0                   0
         2                -126                   0                   0
         3                -117                   0                   0
         4                -108                   0                   0
         5                 -99                   0                   0
         6                 -90                   0                   0
         7                 -81                   0                   0
         8                 -72                   0                   0
         9                 -63                   0                   0
        10                 -54                   0                   0
        11                 -45                   0                   0
        12                 -36                   0                   0
        13                 -27                   0                   0
        14                 -18                   0                   0
        15                  -9                   0                   0
        16                   0                   0                   0
        17                   9                   0                   0
        18                  18                   0                   0
        19                  27                   0                   0
        20                  36                   0                   0
# ... 122 like lines cut
#---1----|----2----|----3----|----4----|----5----|----6----|----7----|----8----|----9----|---10----|
#-  4. BOUNDARY CONDITIONS:
#---1----|----2----|----3----|----4----|----5----|----6----|----7----|----8----|----9----|---10----|
/BCS/1
encastrement
#  Tra rot   skew_ID  grnod_ID
   111 111         0         2
/GRNOD/NODE/2
encastrement
         1        31        32        51        52        71
#---1----|----2----|----3----|----4----|----5----|----6----|----7----|----8----|----9----|---10----|
#-  5. PARTS:
#---1----|----2----|----3----|----4----|----5----|----6----|----7----|----8----|----9----|---10----|
/PART/1
POUTRE
         1         1         1
#---1----|----2----|----3----|----4----|----5----|----6----|----7----|----8----|----9----|---10----|
# BEAM elements of /PART/1/POUTRE:
#---1----|----2----|----3----|----4----|----5----|----6----|----7----|----8----|----9----|---10----|
/BEAM/1
         1         1         2        72
         2         2         3        73
         3         3         4        74
         4         4         5        75
         5         5         6        76
         6         6         7        77
         7         7         8        78
         8         8         9        79
         9         9        10        80
        10        10        11        81
        11        11        12        82
        12        12        13        83
        13        13        14        84
        14        14        15        85
        15        15        16        86
        16        16        17        87
        17        17        18        88
        18        18        19        89
        19        19        20        90
        20        20        21        91
# ... 50 like lines cut
#---1----|----2----|----3----|----4----|----5----|----6----|----7----|----8----|----9----|---10----|
#-  6. SUBSETS:
#---1----|----2----|----3----|----4----|----5----|----6----|----7----|----8----|----9----|---10----|
/SUBSET/1
Frame
#---1----|----2----|----3----|----4----|----5----|----6----|----7----|----8----|----9----|---10----|
#-  7. GEOMETRICAL SETS:
#---1----|----2----|----3----|----4----|----5----|----6----|----7----|----8----|----9----|---10----|
/PROP/BEAM/1
BEAM
#             Ismstr
                   0
#                 dm                  df
                   0                   0
#               Area                 Iyy                 Izz                 Ixx
                  36                 108                 108                 216
# OmegaDof    Ishear
   000 000         0
#---1----|----2----|----3----|----4----|----5----|----6----|----7----|----8----|----9----|---10----|
#-  8. RIGID WALLS:
#---1----|----2----|----3----|----4----|----5----|----6----|----7----|----8----|----9----|---10----|
/RWALL/PLANE/1
impacting node
#  node_ID     Slide grnod_ID1 grnod_ID2
       150         0         3         0
#           D_search                fric            Diameter                ffac       ifq
                   0                   0                   0                   0         0
#               Mass                VX_0                VY_0                VZ_0
                3000                   0                   0                 -10
#               X_M1                Y_M1                Z_M1
                   0                   0                  -1
/GRNOD/NODE/3
impacted node
        16
#---1----|----2----|----3----|----4----|----5----|----6----|----7----|----8----|----9----|---10----|
#-  9. TIME HISTORIES:
#---1----|----2----|----3----|----4----|----5----|----6----|----7----|----8----|----9----|---10----|
/TH/PART/1
Part selection for time history
#     var1      var2      var3      var4      var5      var6      var7      var8      var9     var10
DEF       
#     Obj1      Obj2      Obj3      Obj4      Obj5      Obj6      Obj7      Obj8      Obj9     Obj10
         1
#---1----|----2----|----3----|----4----|----5----|----6----|----7----|----8----|----9----|---10----|
/TH/NODE/2
Node selection for time history
#     var1      var2      var3      var4      var5      var6      var7      var8      var9     var10
DZ        VZ        
#    NODid     Iskew                                           NODname
        11         0Node selection for time history_group_0                                         
        16         0Node selection for time history_group_0                                         
        21         0Node selection for time history_group_0                                         
       150         0Node selection for time history_group_0                                         
#---1----|----2----|----3----|----4----|----5----|----6----|----7----|----8----|----9----|---10----|
/TH/BEAM/3
Beam selection for time history
#     var1      var2      var3      var4      var5      var6      var7      var8      var9     var10
DEF       
#     Elid                                                      Elname
        15                                                                                          
        16                                                                                          
#---1----|----2----|----3----|----4----|----5----|----6----|----7----|----8----|----9----|---10----|
/END
#---1----|----2----|----3----|----4----|----5----|----6----|----7----|----8----|----9----|---10----|
