#RADIOSS STARTER
#--------------------------------------------------------------------------------------------------|
#- RADIOSS DECK WRITTEN BY HyperCrash
#HyperCrash 2019 (64 bits) 
#Fri Jan  4 09:53:16 2019
#-
#--------------------------------------------------------------------------------------------------|
#- DATE	Fri Jan  4 09:53:16 2019
#--------------------------------------------------------------------------------------------------|
#---1----|----2----|----3----|----4----|----5----|----6----|----7----|----8----|----9----|---10----|
/BEGIN
hook_opt                                                                        
      2018         0
                  Mg                  mm                   s
                  Mg                  mm                   s
#---1----|----2----|----3----|----4----|----5----|----6----|----7----|----8----|----9----|---10----|
#-  1. CONTROL CARDS:
#---1----|----2----|----3----|----4----|----5----|----6----|----7----|----8----|----9----|---10----|
/TITLE
hook
#---1----|----2----|----3----|----4----|----5----|----6----|----7----|----8----|----9----|---10----|
/AMS
#grpart_ID
         0
#---1----|----2----|----3----|----4----|----5----|----6----|----7----|----8----|----9----|---10----|
/DEF_SHELL
#   ISHELL    ISMSTR    ITHICK     IPLAS   ISTRAIN                        I_SH3N     IDRIL
        24         2         1         1         1                             2         1
#---1----|----2----|----3----|----4----|----5----|----6----|----7----|----8----|----9----|---10----|
/DEF_SOLID
#  I_SOLID    ISMSTR             ISTRAIN                                  IFRAME
        24         4                   1                                       1
#---1----|----2----|----3----|----4----|----5----|----6----|----7----|----8----|----9----|---10----|
/IOFLAG
#     IPRI               IGTYP     IOUTP    IOUTYY   IROOTYY     IDROT
         0                   0         0         0         0         1
#---1----|----2----|----3----|----4----|----5----|----6----|----7----|----8----|----9----|---10----|
#-  2. MATERIALS:
#---1----|----2----|----3----|----4----|----5----|----6----|----7----|----8----|----9----|---10----|
/MAT/PLAS_JOHNS/1
mat
#              RHO_I
              2.8E-9                   0
#                  E                  Nu     Iflag
               76000                 .33         0
#                  a                   b                   n           EPS_p_max            SIG_max0
                 350               10000                  .7                1E30                1E30
#                  c           EPS_DOT_0       ICC   Fsmooth               F_cut               Chard
                   0                   0         1         0                1E30                   0
#                  m              T_melt              rhoC_p                 T_r
                   0                1E30                   0                   0
#---1----|----2----|----3----|----4----|----5----|----6----|----7----|----8----|----9----|---10----|
/MAT/ELAST/3
mat2
#              RHO_I
            7.872E-9                   0
#                  E                  nu
              210000                  .3
#---1----|----2----|----3----|----4----|----5----|----6----|----7----|----8----|----9----|---10----|
#-  3. NODES:
#---1----|----2----|----3----|----4----|----5----|----6----|----7----|----8----|----9----|---10----|
/NODE
      4667             12.9109            1.942928                  20
      4668             12.9109                .638                  20
      4674                 -22               14.09                  20
      4675                 -22            12.61256                  20
      5185                 -22            13.35128                  20
      5186            -21.2903               14.09                  20
      5187            -20.5806               14.09                  20
      5188             -19.871               14.09                  20
      5189            -19.1613               14.09                  20
      5190            -18.4516               14.09                  20
      5191            -17.7419               14.09                  20
      5192            -17.0323               14.09                  20
      5193            -16.3226               14.09                  20
      5194            -15.6129               14.09                  20
      5195            -14.9032               14.09                  20
      5196            -14.1935               14.09                  20
      5197            -13.4839               14.09                  20
      5198            -12.7742               14.09                  20
      5199            -12.0645               14.09                  20
      5200            -11.3548               14.09                  20
# ... 6198 like lines cut
#---1----|----2----|----3----|----4----|----5----|----6----|----7----|----8----|----9----|---10----|
#-  4. BOUNDARY CONDITIONS:
#---1----|----2----|----3----|----4----|----5----|----6----|----7----|----8----|----9----|---10----|
/BCS/1
Bc_1
#  Tra rot   skew_ID  grnod_ID
   101 111         0       110
/GRNOD/NODE/110
BCS_group_110_of_NODE
     12444
#---1----|----2----|----3----|----4----|----5----|----6----|----7----|----8----|----9----|---10----|
/BCS/2
Bc_2
#  Tra rot   skew_ID  grnod_ID
   111 111         0       111
/GRNOD/NODE/111
BCS_group_111_of_NODE
     12445
#---1----|----2----|----3----|----4----|----5----|----6----|----7----|----8----|----9----|---10----|
#-  5. PARTS:
#---1----|----2----|----3----|----4----|----5----|----6----|----7----|----8----|----9----|---10----|
/PART/1
hexas
         1         1         0
#---1----|----2----|----3----|----4----|----5----|----6----|----7----|----8----|----9----|---10----|
# BRICK elements of /PART/1/hexas:
#---1----|----2----|----3----|----4----|----5----|----6----|----7----|----8----|----9----|---10----|
/BRICK/1
     24030      5424      5410      5418      5425      5514      5517      5516      5515
     24031      5405      5419      5428      5421      5518      5521      5520      5519
     24032      5403      5283      5282      5415      5522      5525      5524      5523
     24039      5418      5402      5413      5422      5516      5540      5539      5538
     24040      5404      5410      5424      5404      5541      5517      5514      5541
     24042      5404      5210      5209      5400      5541      5546      5545      5544
     24043      5405      5421      5413      5399      5518      5519      5539      5547
     24045      5401      5403      5415      5401      5550      5522      5523      5550
     24046      5416      5398      5401      5415      5551      5552      5550      5523
     24047      5397      5398      5416      5419      5553      5552      5551      5521
     24048      5410      5396      5402      5418      5517      5554      5540      5516
     24050      5208      5394      5400      5209      5557      5558      5544      5545
     24051      5405      5393      5397      5419      5518      5559      5553      5521
     24053      5399      5413      5402      5395      5547      5539      5540      5561
     24055      5396      5410      5404      5392      5554      5517      5541      5563
     24061      5393      5405      5399      5391      5559      5518      5547      5569
     24062      5400      5390      5392      5404      5544      5570      5563      5541
     24063      5401      5323      5322      5403      5550      5571      5568      5522
     24064      5207      5389      5394      5208      5572      5573      5558      5557
     24065      5396      5387      5395      5402      5554      5574      5561      5540
# ... 3600 like lines cut
#---1----|----2----|----3----|----4----|----5----|----6----|----7----|----8----|----9----|---10----|
/PART/2
plate
         2         3         0
#---1----|----2----|----3----|----4----|----5----|----6----|----7----|----8----|----9----|---10----|
# SHELL elements of /PART/2/plate:
#---1----|----2----|----3----|----4----|----5----|----6----|----7----|----8----|----9----|---10----|
/SHELL/2
     29182     12419     12434     12435     12418
     29184     12434     12431     12432     12435
     29186     12421     12433     12436     12420
     29187     12420     12436     12434     12419
     29188     12433     12429     12430     12436
     29189     12436     12430     12431     12434
     29190     12423     12437     12438     12422
     29191     12422     12438     12433     12421
     29192     12437     12427     12428     12438
     29193     12438     12428     12429     12433
     29195     12424     12439     12437     12423
     29197     12439     12426     12427     12437
#---1----|----2----|----3----|----4----|----5----|----6----|----7----|----8----|----9----|---10----|
/PART/3
face
         3         1         0
#---1----|----2----|----3----|----4----|----5----|----6----|----7----|----8----|----9----|---10----|
# SHELL elements of /PART/3/face:
#---1----|----2----|----3----|----4----|----5----|----6----|----7----|----8----|----9----|---10----|
/SHELL/3
     29236      5575      5906      5902      5571
     29239      5906      6237      6233      5902
     29242      6237      6568      6564      6233
     29245      6568      6899      6895      6564
     29248      6899      7230      7226      6895
     29251      7230      7561      7557      7226
     29254      7561      7892      7888      7557
     29257      7892      8223      8219      7888
     29260      8223      8554      8550      8219
     29263      8554      8885      8881      8550
     29266      8885      9216      9212      8881
     29269      9216      9547      9543      9212
     29272      9547      9878      9874      9543
     29275      9878     10209     10205      9874
     29278     10209     10540     10536     10205
     29281     10540     10871     10867     10536
     29284     10871     11202     11198     10867
     29287     11202     11533     11529     11198
     29294     11533     11864     11860     11529
     29326      5311      5530      5663      5310
# ... 660 like lines cut
#---1----|----2----|----3----|----4----|----5----|----6----|----7----|----8----|----9----|---10----|
/PART/4
design
         4         1         0
#---1----|----2----|----3----|----4----|----5----|----6----|----7----|----8----|----9----|---10----|
# BRICK elements of /PART/4/design:
#---1----|----2----|----3----|----4----|----5----|----6----|----7----|----8----|----9----|---10----|
/BRICK/4
     24029      5412      5289      5288      5411      5510      5513      5512      5511
     24033      5411      5288      5287      5409      5511      5512      5527      5526
     24034      5286      5408      5409      5287      5528      5529      5526      5527
     24035      5311      5426      5423      5312      5530      5533      5532      5531
     24036      5408      5286      5285      5407      5529      5528      5535      5534
     24037      5407      5285      5284      5406      5534      5535      5537      5536
     24038      5283      5403      5406      5284      5525      5522      5536      5537
     24041      5312      5423      5420      5313      5531      5532      5543      5542
     24044      5313      5420      5417      5314      5542      5543      5549      5548
     24049      5314      5417      5414      5315      5548      5549      5556      5555
     24052      5412      5316      5315      5414      5510      5560      5555      5556
     24054      5316      5412      5411      5317      5560      5510      5511      5562
     24056      5317      5411      5409      5318      5562      5511      5526      5564
     24057      5408      5319      5318      5409      5529      5565      5564      5526
     24058      5319      5408      5407      5320      5565      5529      5534      5566
     24059      5320      5407      5406      5321      5566      5534      5536      5567
     24060      5403      5322      5321      5406      5522      5568      5567      5536
     24137      5310      5430      5426      5311      5663      5664      5533      5530
     24138      5289      5412      5414      5290      5513      5510      5556      5665
     24143      5417      5291      5290      5414      5549      5670      5665      5556
# ... 780 like lines cut
#---1----|----2----|----3----|----4----|----5----|----6----|----7----|----8----|----9----|---10----|
#-  6. GEOMETRICAL SETS:
#---1----|----2----|----3----|----4----|----5----|----6----|----7----|----8----|----9----|---10----|
/PROP/SOLID/1
Solid
#   Isolid    Ismstr               Icpre               Inpts    Itetra    Iframe                  dn
         0         0                   0                 222         0         0                   0
#                q_a                 q_b                   h            LAMBDA_V                MU_V
                   0                   0                   0                   0                   0
#             dt_min   istrain      IHKT
                   0         1         0
#---1----|----2----|----3----|----4----|----5----|----6----|----7----|----8----|----9----|---10----|
/PROP/SHELL/2
Shell
#   Ishell    Ismstr     Ish3n    Idrill
         0         0         0         0
#                 hm                  hf                  hr                  dm                  dn
                   0                   0                   0                   0                   0
#        N   Istrain               Thick              Ashear              Ithick     Iplas
         0         1                  .1        .83333333333                   0         0
#---1----|----2----|----3----|----4----|----5----|----6----|----7----|----8----|----9----|---10----|
/PROP/SHELL/3
face
#   Ishell    Ismstr     Ish3n    Idrill
         0         0         0         0
#                 hm                  hf                  hr                  dm                  dn
                   0                   0                   0                   0                   0
#        N   Istrain               Thick              Ashear              Ithick     Iplas
         5         1                  .2        .83333333333                   0         0
#---1----|----2----|----3----|----4----|----5----|----6----|----7----|----8----|----9----|---10----|
/PROP/SOLID/4
design
#   Isolid    Ismstr               Icpre               Inpts    Itetra    Iframe                  dn
         0         0                   0                 222         0         0                   0
#                q_a                 q_b                   h            LAMBDA_V                MU_V
                   0                   0                   0                   0                   0
#             dt_min   istrain      IHKT
                   0         1         0
#---1----|----2----|----3----|----4----|----5----|----6----|----7----|----8----|----9----|---10----|
#-  7. FUNCTIONS:
#---1----|----2----|----3----|----4----|----5----|----6----|----7----|----8----|----9----|---10----|
/FUNCT/4
Funct_4
#                  X                   Y
                   0                   0
                  .1                   1
#---1----|----2----|----3----|----4----|----5----|----6----|----7----|----8----|----9----|---10----|
#-  8. CONCENTRATED LOADS:
#---1----|----2----|----3----|----4----|----5----|----6----|----7----|----8----|----9----|---10----|
/CLOAD/4
CLOAD_4
#funct_IDT       Dir   skew_ID sensor_ID  grnod_ID                       Ascalex             Fscaley
         4         Y         0         0       113                             1               -4000
/GRNOD/NODE/113
CLOAD_group_113_of_NODE
     12444
#---1----|----2----|----3----|----4----|----5----|----6----|----7----|----8----|----9----|---10----|
#-  9. INTERFACES:
#---1----|----2----|----3----|----4----|----5----|----6----|----7----|----8----|----9----|---10----|
/INTER/TYPE7/2
INTER_TYPE7_2
#  Slav_id   Mast_id      Istf      Ithe      Igap                Ibag      Idel     Icurv      Iadm
         3       106         0         0         0                   0         0         0         0
#          Fscalegap             Gap_max             Fpenmax
                   0                   0                   1
#              Stmin               Stmax          %mesh_size               dtmin  Irem_gap   Irem_i2
                   0                   0                   0                   0         0         0
#              Stfac                Fric              Gapmin              Tstart               Tstop
                   1                   0                  .1                   0                   0
#      IBC                        Inacti                VisS                VisF              Bumult
       000                             5                 .05                   1                  .2
#    Ifric    Ifiltr               Xfreq     Iform   sens_ID   fct_IDf             AscaleF   fric_ID
         0         0                   0         2         0         0                   0         0
/GRNOD/NODE/3
GRNOD_NODE_3
      4668      4675      5303      5304      5305      5306      5307      5308      5309      5310
      5311      5312      5313      5314      5315      5316      5317      5318      5319      5320
      5321      5322      5323      5324      5325      5326      5327      5328      5329      5330
      5331      5332      5333      5334      5335      5336      5337      5338      5339      5340
      5341      5342      5343      5344      5345      5346      5347      5348      5349      5350
      5351      5352      5530      5531      5542      5548      5555      5560      5562      5564
      5565      5566      5567      5568      5571      5575      5577      5579      5583      5586
      5588      5592      5594      5599      5602      5604      5608      5612      5616      5617
      5620      5623      5626      5629      5632      5635      5638      5641      5644      5647
      5650      5653      5656      5659      5662      5663      5674      5681      5687      5695
      5701      5708      5713      5719      5861      5862      5873      5879      5886      5891
      5893      5895      5896      5897      5898      5899      5902      5906      5908      5910
      5914      5917      5919      5923      5925      5930      5933      5935      5939      5943
      5947      5948      5951      5954      5957      5960      5963      5966      5969      5972
      5975      5978      5981      5984      5987      5990      5993      5994      6005      6012
      6018      6026      6032      6039      6044      6050      6192      6193      6204      6210
      6217      6222      6224      6226      6227      6228      6229      6230      6233      6237
      6239      6241      6245      6248      6250      6254      6256      6261      6264      6266
      6270      6274      6278      6279      6282      6285      6288      6291      6294      6297
      6300      6303      6306      6309      6312      6315      6318      6321      6324      6325
# ... 90 like lines cut
/SURF/SEG/106
SURF_SEG106
         1     12419     12434     12435     12418
         2     12420     12436     12434     12419
         3     12421     12433     12436     12420
         4     12422     12438     12433     12421
         5     12423     12437     12438     12422
         6     12424     12439     12437     12423
         7     12439     12426     12427     12437
         8     12437     12427     12428     12438
         9     12438     12428     12429     12433
        10     12433     12429     12430     12436
        11     12436     12430     12431     12434
        12     12434     12431     12432     12435
#---1----|----2----|----3----|----4----|----5----|----6----|----7----|----8----|----9----|---10----|
#- 10. RIGID BODIES:
#---1----|----2----|----3----|----4----|----5----|----6----|----7----|----8----|----9----|---10----|
/RBODY/1
New RBODY 1
#     RBID     ISENS     NSKEW    ISPHER                MASS   Gnod_id     IKREM      ICOG   Surf_id
     12444         0         0         0                   0       107         0         0         0
#                Jxx                 Jyy                 Jzz
                   0                   0                   0
#                Jxy                 Jyz                 Jxz
                   0                   0                   0
#  Ioptoff   Iexpams
         0         0
/GRNOD/NODE/107
RBODY_group_107_of_NODE
      4674      5186      5187      5188      5189      5190      5191      5192      5193      5194
      5195      5196      5197      5198      5199      5200      5201      5202      5203      5204
      5205      5206      5207      5208      5209      5210      5211      5212      5213      5214
      5215      5216      5217      5218      5219      5220      5221      5222      5223      5224
      5225      5226      5227      5228      5229      5230      5231      5232      5233      5234
      5235      5236      5237      5238      5545      5546      5557      5572      5580      5590
      5595      5600      5605      5609      5615      5618      5621      5624      5627      5630
      5633      5636      5639      5643      5645      5648      5651      5654      5657      5660
      5669      5684      5697      5704      5710      5717      5722      5727      5730      5734
      5738      5742      5746      5750      5754      5758      5762      5766      5770      5774
      5778      5782      5786      5790      5794      5798      5802      5806      5876      5877
      5888      5903      5911      5921      5926      5931      5936      5940      5946      5949
      5952      5955      5958      5961      5964      5967      5970      5974      5976      5979
      5982      5985      5988      5991      6000      6015      6028      6035      6041      6048
      6053      6058      6061      6065      6069      6073      6077      6081      6085      6089
      6093      6097      6101      6105      6109      6113      6117      6121      6125      6129
      6133      6137      6207      6208      6219      6234      6242      6252      6257      6262
      6267      6271      6277      6280      6283      6286      6289      6292      6295      6298
      6301      6305      6307      6310      6313      6316      6319      6322      6331      6346
      6359      6366      6372      6379      6384      6389      6392      6396      6400      6404
# ... 94 like lines cut
#---1----|----2----|----3----|----4----|----5----|----6----|----7----|----8----|----9----|---10----|
/RBODY/2
New RBODY 2
#     RBID     ISENS     NSKEW    ISPHER                MASS   Gnod_id     IKREM      ICOG   Surf_id
     12445         0         0         0                   0       112         0         0         0
#                Jxx                 Jyy                 Jzz
                   0                   0                   0
#                Jxy                 Jyz                 Jxz
                   0                   0                   0
#  Ioptoff   Iexpams
         0         0
/GRNOD/PART/112
RBODY_group_112_of_PART
         2
#---1----|----2----|----3----|----4----|----5----|----6----|----7----|----8----|----9----|---10----|
#- 11. NODE GROUPS:
#---1----|----2----|----3----|----4----|----5----|----6----|----7----|----8----|----9----|---10----|
/GRNOD/NODE/120
node of for radopt constraint
     12095
#---1----|----2----|----3----|----4----|----5----|----6----|----7----|----8----|----9----|---10----|
#- 12. GRPART:
#---1----|----2----|----3----|----4----|----5----|----6----|----7----|----8----|----9----|---10----|
/GRPART/PART/4
part4 for dtpl
         4
#---1----|----2----|----3----|----4----|----5----|----6----|----7----|----8----|----9----|---10----|
#- 13. TIME HISTORIES:
#---1----|----2----|----3----|----4----|----5----|----6----|----7----|----8----|----9----|---10----|
/TH/RBODY/1
TH RBODY
#     var1      var2      var3      var4      var5      var6      var7      var8      var9     var10
DEF       
#     Obj1      Obj2      Obj3      Obj4      Obj5      Obj6      Obj7      Obj8      Obj9     Obj10
         1         2
#---1----|----2----|----3----|----4----|----5----|----6----|----7----|----8----|----9----|---10----|
/TH/NODE/2
constraint node displacement
#     var1      var2      var3      var4      var5      var6      var7      var8      var9     var10
DEF       
#    NODid     Iskew                                           NODname
     12095         0constraint node displacement                                                    
#---1----|----2----|----3----|----4----|----5----|----6----|----7----|----8----|----9----|---10----|
/END
#---1----|----2----|----3----|----4----|----5----|----6----|----7----|----8----|----9----|---10----|
