#RADIOSS STARTER
#--------------------------------------------------------------------------------------------------|
#- RADIOSS DECK WRITTEN BY HyperCrash
#HyperCrash 14.0 (64 bits) 
#Mon Dec 21 15:01:58 2015
#-
#--------------------------------------------------------------------------------------------------|
#- RADIOSS DECK WRITTEN BY HyperCrash
#HyperCrash 11.0 402 b4/SA15-2 (64 bits)
#Tue Mar 27 17:44:06 2012
#-
#-
#- DATE	Tue Mar 27 17:44:06 2012
#--------------------------------------------------------------------------------------------------|
#---1----|----2----|----3----|----4----|----5----|----6----|----7----|----8----|----9----|---10----|
#-
#- DATE	Mon Dec 21 15:01:58 2015
#--------------------------------------------------------------------------------------------------|
#---1----|----2----|----3----|----4----|----5----|----6----|----7----|----8----|----9----|---10----|
/BEGIN
bumper_LL4                                                                      
       140         0
                  kg                  mm                  ms
                  kg                  mm                  ms
#---1----|----2----|----3----|----4----|----5----|----6----|----7----|----8----|----9----|---10----|
#-  1. CONTROL CARDS:
#---1----|----2----|----3----|----4----|----5----|----6----|----7----|----8----|----9----|---10----|
/TITLE
LOW SPEED POLE IMPACT
#---1----|----2----|----3----|----4----|----5----|----6----|----7----|----8----|----9----|---10----|
/ANALY
#    N2D3D             IPARITH      ISUB
         0                   0         0
#---1----|----2----|----3----|----4----|----5----|----6----|----7----|----8----|----9----|---10----|
/IOFLAG
#     IPRI               IGTYP     IOUTP    IOUTYY   IROOTYY     IDROT
         5                   0         0         0         0         0
#---1----|----2----|----3----|----4----|----5----|----6----|----7----|----8----|----9----|---10----|
/RANDOM
#       Random-Noise                Seed
                   0                   0
#---1----|----2----|----3----|----4----|----5----|----6----|----7----|----8----|----9----|---10----|
/SPMD
#   DOMDEC     Nproc              Dkword             Nthread
         0         0                   0                   1
#---1----|----2----|----3----|----4----|----5----|----6----|----7----|----8----|----9----|---10----|
#-  2. MATERIALS:
#---1----|----2----|----3----|----4----|----5----|----6----|----7----|----8----|----9----|---10----|
/SUBDOMAIN/1
FINE_MESH
        34
#---1----|----2----|----3----|----4----|----5----|----6----|----7----|----8----|----9----|---10----|
/MAT/PLAS_JOHNS/2
steel
#              RHO_I
             7.85E-6                   0
#                  E                  Nu
                 210                  .3
#                  a                   b                   n           EPS_p_max            SIG_max0
                  .3                  .5                  .5                   0                   0
#                  c           EPS_DOT_0       ICC   Fsmooth               F_cut               Chard
                   0                   0         0         0                   0                   0
#                  m              T_melt              rhoC_p                 T_r
                   0                   0                   0                   0
#---1----|----2----|----3----|----4----|----5----|----6----|----7----|----8----|----9----|---10----|
/MAT/PLAS_JOHNS/5
steel.1
#              RHO_I
             7.85E-6                   0
#                  E                  Nu
                 210                  .3
#                  a                   b                   n           EPS_p_max            SIG_max0
                  .3                  .5                  .5                   0                   0
#                  c           EPS_DOT_0       ICC   Fsmooth               F_cut               Chard
                   0                   0         0         0                   0                   0
#                  m              T_melt              rhoC_p                 T_r
                   0                   0                   0                   0
#---1----|----2----|----3----|----4----|----5----|----6----|----7----|----8----|----9----|---10----|
/MAT/PLAS_TAB/12
steel.2
#              RHO_I
              7.8E-6                   0
#                  E                  Nu           Eps_p_max               Eps_t               Eps_m
                 204                  .3                1E30                   0                   0
#  N_funct  F_smooth              C_hard               F_cut               Eps_f
         1         0                   0                   0                   0
#  fct_IDp              Fscale   Fct_IDE                EInf                  CE
         0                   0         0                   0                   0
# func_ID1  func_ID2  func_ID3  func_ID4  func_ID5
        13
#           Fscale_1            Fscale_2            Fscale_3            Fscale_4            Fscale_5
                   1
#          Eps_dot_1           Eps_dot_2           Eps_dot_3           Eps_dot_4           Eps_dot_5
                   0
/FAIL/JOHNSON/12
#                 D1                  D2                  D3                  D4                  D5
          .135864972         2.994204763        -6.388078923                   0                   0
#              EPS_0  Ifail_sh  Ifail_so                                    Dadv               Ixfem
                   0         1         0                                       0                   0
#---1----|----2----|----3----|----4----|----5----|----6----|----7----|----8----|----9----|---10----|
#-  3. NODES:
#---1----|----2----|----3----|----4----|----5----|----6----|----7----|----8----|----9----|---10----|
/NODE
        67          -34.864388         -191.404668                  75
       149           60.885092        -1011.867236                  75
       165           61.608876        -1011.758669                 -75
       247          -34.133495         -191.383913                 -75
      1427          -34.864566         -191.401201            -.038257
      1808           43.959712         -189.166473                  75
      1890           138.94252        -1000.158622                  75
      2605                 140               -1000                 -75
      2687           45.027579         -189.136152                 -75
      3328           -24.23691         -191.102759                 -75
      4683           45.028562         -189.155283          -37.453855
      5858          317.508237         -842.830019           19.995799
      5859          307.919053         -842.359242            19.99582
      5860          298.333099         -841.887809            19.99582
      5861          288.747144         -841.416375            19.99582
      5862          279.161193         -840.944939           19.995819
      5863          269.575232         -840.473502           19.995818
      5864          259.989277         -840.002063           19.995818
      5865          250.403323         -839.530623           19.995818
      5866          240.817369         -839.059182           19.995818
# ... 38347 like lines cut
#---1----|----2----|----3----|----4----|----5----|----6----|----7----|----8----|----9----|---10----|
#-  4. BOUNDARY CONDITIONS:
#---1----|----2----|----3----|----4----|----5----|----6----|----7----|----8----|----9----|---10----|
/BCS/1
z-free
#  Tra rot   skew_ID  grnod_ID
   011 111         0        31
/GRNOD/NODE/31
BCS_group_31_of_NODE
     14063
#---1----|----2----|----3----|----4----|----5----|----6----|----7----|----8----|----9----|---10----|
#-  5. PARTS:
#---1----|----2----|----3----|----4----|----5----|----6----|----7----|----8----|----9----|---10----|
/PART/4
SHELL
         2         2        12
#---1----|----2----|----3----|----4----|----5----|----6----|----7----|----8----|----9----|---10----|
# SHELL elements of /PART/4/SHELL:
#---1----|----2----|----3----|----4----|----5----|----6----|----7----|----8----|----9----|---10----|
/SHELL/4
      5657      5935      5937      5938      5934                                                 0
      5658      5934      5938      5930      5931                                                 0
      5659      5937      5924      5925      5938                                                 0
      5660      5938      5925      5926      5930                                                 0
      5661      5890      5891      5939      5936                                                 0
      5662      5936      5939      5937      5935                                                 0
      5663      5891      5892      5923      5939                                                 0
      5664      5939      5923      5924      5937                                                 0
      5665      5885      5940      5942      5884                                                 0
      5666      5884      5942      5933      5883                                                 0
      5667      5940      5941      5943      5942                                                 0
      5668      5942      5943      5932      5933                                                 0
      5669      5941      5935      5934      5943                                                 0
      5670      5943      5934      5931      5932                                                 0
      5671      5887      5888      5944      5886                                                 0
      5672      5886      5944      5940      5885                                                 0
      5673      5888      5889      5945      5944                                                 0
      5674      5944      5945      5941      5940                                                 0
      5675      5889      5890      5936      5945                                                 0
      5676      5945      5936      5935      5941                                                 0
# ... 562 like lines cut
#---1----|----2----|----3----|----4----|----5----|----6----|----7----|----8----|----9----|---10----|
/PART/5
SHELL.1
         2         2        12
#---1----|----2----|----3----|----4----|----5----|----6----|----7----|----8----|----9----|---10----|
# SHELL elements of /PART/5/SHELL.1:
#---1----|----2----|----3----|----4----|----5----|----6----|----7----|----8----|----9----|---10----|
/SHELL/5
      6203      6520      6522      6516      6517                                                 0
      6204      6522      6512      6513      6516                                                 0
      6205      6521      6523      6522      6520                                                 0
      6206      6523      6511      6512      6522                                                 0
      6207      6482      6483      6523      6521                                                 0
      6208      6483      6484      6511      6523                                                 0
      6209      6477      6524      6519      6476                                                 0
      6210      6524      6525      6518      6519                                                 0
      6211      6525      6520      6517      6518                                                 0
      6212      6479      6480      6526      6478                                                 0
      6213      6478      6526      6524      6477                                                 0
      6214      6521      6527      6481      6482                                                 0
      6215      6527      6526      6480      6481                                                 0
      6216      6520      6525      6527      6521                                                 0
      6217      6525      6524      6526      6527                                                 0
      6218      6528      6530      6469      6470                                                 0
      6219      6530      6515      6468      6469                                                 0
      6220      6529      6531      6530      6528                                                 0
      6221      6531      6514      6515      6530                                                 0
      6222      6517      6516      6531      6529                                                 0
# ... 501 like lines cut
#---1----|----2----|----3----|----4----|----5----|----6----|----7----|----8----|----9----|---10----|
/PART/6
SHELL.2
         4        12         0
#---1----|----2----|----3----|----4----|----5----|----6----|----7----|----8----|----9----|---10----|
# SH3N elements of /PART/6/SHELL.2:
#---1----|----2----|----3----|----4----|----5----|----6----|----7----|----8----|----9----|---10----|
/SH3N/6
    117807    217682    217686    217676                                                           0
    124452    224482    224486    224476                                                           0
    134996    234822    234823    234821                                                           0
    135639    235416    235417    235415                                                           0
#---1----|----2----|----3----|----4----|----5----|----6----|----7----|----8----|----9----|---10----|
# SHELL elements of /PART/6/SHELL.2:
#---1----|----2----|----3----|----4----|----5----|----6----|----7----|----8----|----9----|---10----|
/SHELL/6
    116678    216710    216712    216706    216707                                                 0
    116679    216712    216701    216702    216706                                                 0
    116680    216692    216693    216713    216711                                                 0
    116681    216711    216713    216712    216710                                                 0
    116682    216693    216694    216700    216713                                                 0
    116683    216713    216700    216701    216712                                                 0
    116684    216707    216708    216714    216710                                                 0
    116685    216710    216714    216715    216711                                                 0
    116686    216711    216715    216691    216692                                                 0
    116687    216421    216716    216709    216420                                                 0
    116688    216716    216714    216708    216709                                                 0
    116689    216423    216690    216717    216422                                                 0
    116690    216422    216717    216716    216421                                                 0
    116691    216690    216691    216715    216717                                                 0
    116692    216717    216715    216714    216716                                                 0
    116693    216719    216721    216722    216718                                                 0
    116694    216718    216722    216413    216414                                                 0
    116695    216721    216704    216705    216722                                                 0
    116696    216722    216705    216412    216413                                                 0
    116697    216707    216706    216723    216720                                                 0
# ... 11482 like lines cut
#---1----|----2----|----3----|----4----|----5----|----6----|----7----|----8----|----9----|---10----|
/PART/10
SHELL.6
         3        12         0
#---1----|----2----|----3----|----4----|----5----|----6----|----7----|----8----|----9----|---10----|
# SHELL elements of /PART/10/SHELL.6:
#---1----|----2----|----3----|----4----|----5----|----6----|----7----|----8----|----9----|---10----|
/SHELL/10
    121746    221759    221761    221755    221756                                                 0
    121747    221761    221750    221751    221755                                                 0
    121748    221742    221743    221762    221760                                                 0
    121749    221760    221762    221761    221759                                                 0
    121750    221743    221744    221749    221762                                                 0
    121751    221762    221749    221750    221761                                                 0
    121752    221756    221757    221763    221759                                                 0
    121753    221759    221763    221764    221760                                                 0
    121754    221760    221764    221741    221742                                                 0
    121755    221731    221765    221758    221730                                                 0
    121756    221765    221763    221757    221758                                                 0
    121757    221733    221740    221766    221732                                                 0
    121758    221732    221766    221765    221731                                                 0
    121759    221740    221741    221764    221766                                                 0
    121760    221766    221764    221763    221765                                                 0
    121761    221768    221770    221771    221767                                                 0
    121762    221767    221771    221712    221713                                                 0
    121763    221770    221753    221754    221771                                                 0
    121764    221771    221754    221711    221712                                                 0
    121765    221756    221755    221772    221769                                                 0
# ... 5566 like lines cut
#---1----|----2----|----3----|----4----|----5----|----6----|----7----|----8----|----9----|---10----|
/PART/13
SHELL.7
         9         5        15
#---1----|----2----|----3----|----4----|----5----|----6----|----7----|----8----|----9----|---10----|
# SHELL elements of /PART/13/SHELL.7:
#---1----|----2----|----3----|----4----|----5----|----6----|----7----|----8----|----9----|---10----|
/SHELL/13
     12416     12875     12874     12872     12871                                                 0
     12417     12867     12875     12871     12868                                                 0
     12418     12862     12861     12874     12875                                                 0
     12419     12863     12862     12875     12867                                                 0
     12420     12876     12828     12827     12873                                                 0
     12421     12874     12876     12873     12872                                                 0
     12422     12860     12829     12828     12876                                                 0
     12423     12861     12860     12876     12874                                                 0
     12424     12879     12877     12822     12821                                                 0
     12425     12870     12879     12821     12820                                                 0
     12426     12880     12878     12877     12879                                                 0
     12427     12869     12880     12879     12870                                                 0
     12428     12871     12872     12878     12880                                                 0
     12429     12868     12871     12880     12869                                                 0
     12430     12881     12825     12824     12823                                                 0
     12431     12877     12881     12823     12822                                                 0
     12432     12882     12826     12825     12881                                                 0
     12433     12878     12882     12881     12877                                                 0
     12434     12873     12827     12826     12882                                                 0
     12435     12872     12873     12882     12878                                                 0
# ... 562 like lines cut
#---1----|----2----|----3----|----4----|----5----|----6----|----7----|----8----|----9----|---10----|
/PART/14
SHELL.8
         9         5        15
#---1----|----2----|----3----|----4----|----5----|----6----|----7----|----8----|----9----|---10----|
# SHELL elements of /PART/14/SHELL.8:
#---1----|----2----|----3----|----4----|----5----|----6----|----7----|----8----|----9----|---10----|
/SHELL/14
     12962     13453     13459     13457     13454                                                 0
     12963     13450     13449     13459     13453                                                 0
     12964     13459     13460     13458     13457                                                 0
     12965     13449     13448     13460     13459                                                 0
     12966     13460     13420     13419     13458                                                 0
     12967     13448     13421     13420     13460                                                 0
     12968     13456     13461     13414     13413                                                 0
     12969     13455     13462     13461     13456                                                 0
     12970     13454     13457     13462     13455                                                 0
     12971     13463     13417     13416     13415                                                 0
     12972     13461     13463     13415     13414                                                 0
     12973     13418     13464     13458     13419                                                 0
     12974     13417     13463     13464     13418                                                 0
     12975     13464     13462     13457     13458                                                 0
     12976     13463     13461     13462     13464                                                 0
     12977     13406     13467     13465     13407                                                 0
     12978     13405     13452     13467     13406                                                 0
     12979     13467     13468     13466     13465                                                 0
     12980     13452     13451     13468     13467                                                 0
     12981     13468     13453     13454     13466                                                 0
# ... 501 like lines cut
#---1----|----2----|----3----|----4----|----5----|----6----|----7----|----8----|----9----|---10----|
/PART/28
E_SPOTWELD_1
        16         0         0
#---1----|----2----|----3----|----4----|----5----|----6----|----7----|----8----|----9----|---10----|
# SPRING elements of /PART/28/E_SPOTWELD_1:
#---1----|----2----|----3----|----4----|----5----|----6----|----7----|----8----|----9----|---10----|
/SPRING/28
         1    108084    108085                                        
         2    108086    108087                                        
         3    108088    108089                                        
         4    108090    108091                                        
         5    108092    108093                                        
         6    108094    108095                                        
         7    108096    108097                                        
#---1----|----2----|----3----|----4----|----5----|----6----|----7----|----8----|----9----|---10----|
/PART/29
E_SPOTWELD_2
        17         0         0
#---1----|----2----|----3----|----4----|----5----|----6----|----7----|----8----|----9----|---10----|
# SPRING elements of /PART/29/E_SPOTWELD_2:
#---1----|----2----|----3----|----4----|----5----|----6----|----7----|----8----|----9----|---10----|
/SPRING/29
         8    108098    108099                                        
         9    108100    108101                                        
        10    108102    108103                                        
        11    108104    108105                                        
        12    108106    108107                                        
        13    108108    108109                                        
        14    108110    108111                                        
#---1----|----2----|----3----|----4----|----5----|----6----|----7----|----8----|----9----|---10----|
/PART/30
E_SPOTWELD_3
        18         0         0
#---1----|----2----|----3----|----4----|----5----|----6----|----7----|----8----|----9----|---10----|
# SPRING elements of /PART/30/E_SPOTWELD_3:
#---1----|----2----|----3----|----4----|----5----|----6----|----7----|----8----|----9----|---10----|
/SPRING/30
        15    108112    108113                                        
        16    108114    108115                                        
        17    108116    108117                                        
        18    108118    108119                                        
        19    108120    108121                                        
        20    108122    108123                                        
        21    108124    108125                                        
        22    108126    108127                                        
        23    108128    108129                                        
        24    108130    108131                                        
        25    108132    108133                                        
        26    108134    108135                                        
        27    108136    108137                                        
        28    108138    108139                                        
        29    108140    108141                                        
#---1----|----2----|----3----|----4----|----5----|----6----|----7----|----8----|----9----|---10----|
/PART/31
E_SPOTWELD_4
        19         0         0
#---1----|----2----|----3----|----4----|----5----|----6----|----7----|----8----|----9----|---10----|
# SPRING elements of /PART/31/E_SPOTWELD_4:
#---1----|----2----|----3----|----4----|----5----|----6----|----7----|----8----|----9----|---10----|
/SPRING/31
        30    108142    108143                                        
        31    108144    108145                                        
        32    108146    108147                                        
        33    108148    108149                                        
        34    108150    108151                                        
        35    108152    108153                                        
        36    108154    108155                                        
        37    108156    108157                                        
        38    108158    108159                                        
        39    108160    108161                                        
        40    108162    108163                                        
        41    108164    108165                                        
        42    108166    108167                                        
        43    108168    108169                                        
        44    108170    108171                                        
#---1----|----2----|----3----|----4----|----5----|----6----|----7----|----8----|----9----|---10----|
/PART/32
E_SPOTWELD_5
        20         0         0
#---1----|----2----|----3----|----4----|----5----|----6----|----7----|----8----|----9----|---10----|
# SPRING elements of /PART/32/E_SPOTWELD_5:
#---1----|----2----|----3----|----4----|----5----|----6----|----7----|----8----|----9----|---10----|
/SPRING/32
        45    108172    108173                                        
        46    108174    108175                                        
        47    108176    108177                                        
        48    108178    108179                                        
        49    108180    108181                                        
        50    108182    108183                                        
        51    108184    108185                                        
#---1----|----2----|----3----|----4----|----5----|----6----|----7----|----8----|----9----|---10----|
/PART/33
E_SPOTWELD_6
        21         0         0
#---1----|----2----|----3----|----4----|----5----|----6----|----7----|----8----|----9----|---10----|
# SPRING elements of /PART/33/E_SPOTWELD_6:
#---1----|----2----|----3----|----4----|----5----|----6----|----7----|----8----|----9----|---10----|
/SPRING/33
        52    108186    108187                                        
        53    108188    108189                                        
        54    108190    108191                                        
        55    108192    108193                                        
        56    108194    108195                                        
        57    108196    108197                                        
        58    108198    108199                                        
#---1----|----2----|----3----|----4----|----5----|----6----|----7----|----8----|----9----|---10----|
/PART/34
DP_X
        22        12        69
#---1----|----2----|----3----|----4----|----5----|----6----|----7----|----8----|----9----|---10----|
# SHELL elements of /PART/34/DP_X:
#---1----|----2----|----3----|----4----|----5----|----6----|----7----|----8----|----9----|---10----|
/SHELL/34
     26382    108581    108584    108585    108580                                                 0
     26383    108580    108585    108576    108577                                                 0
     26384    108584    108569    108570    108585                                                 0
     26385    108585    108570    108571    108576                                                 0
     26386    108582    108586    108584    108581                                                 0
     26387    108586    108568    108569    108584                                                 0
     26388    108560    108561    108587    108583                                                 0
     26389    108583    108587    108586    108582                                                 0
     26390    108561    108562    108567    108587                                                 0
     26391    108587    108567    108568    108586                                                 0
     26392    108545    108588    108590    108544                                                 0
     26393    108544    108590    108579    108543                                                 0
     26394    108588    108589    108591    108590                                                 0
     26395    108590    108591    108578    108579                                                 0
     26396    108589    108581    108580    108591                                                 0
     26397    108591    108580    108577    108578                                                 0
     26398    108548    108558    108592    108547                                                 0
     26399    108547    108592    108593    108546                                                 0
     26400    108546    108593    108588    108545                                                 0
     26401    108583    108594    108559    108560                                                 0
# ... 18350 like lines cut
#---1----|----2----|----3----|----4----|----5----|----6----|----7----|----8----|----9----|---10----|
#-  6. SUBSETS:
#---1----|----2----|----3----|----4----|----5----|----6----|----7----|----8----|----9----|---10----|
/SUBSET/12
CrashBox_LHS
#---1----|----2----|----3----|----4----|----5----|----6----|----7----|----8----|----9----|---10----|
/SUBSET/15
CrashBox_RHS
#---1----|----2----|----3----|----4----|----5----|----6----|----7----|----8----|----9----|---10----|
/SUBSET/69
fine_mesh
#---1----|----2----|----3----|----4----|----5----|----6----|----7----|----8----|----9----|---10----|
#-  7. GEOMETRICAL SETS:
#---1----|----2----|----3----|----4----|----5----|----6----|----7----|----8----|----9----|---10----|
/PROP/SHELL/2
t2.2mm
#   Ishell    Ismstr     Ish3n    Idrill
        24         0         0         0
#                 hm                  hf                  hr                  dm                  dn
                   0                   0                   0                   0                   0
#        N   Istrain               Thick              Ashear              Ithick     Iplas
         5         0                 2.2                   0                   1         1
#---1----|----2----|----3----|----4----|----5----|----6----|----7----|----8----|----9----|---10----|
/PROP/SHELL/3
t2.0mm
#   Ishell    Ismstr     Ish3n    Idrill
        24         0         0         0
#                 hm                  hf                  hr                  dm                  dn
                   0                   0                   0                   0                   0
#        N   Istrain               Thick              Ashear              Ithick     Iplas
         5         0                   2                   0                   1         1
#---1----|----2----|----3----|----4----|----5----|----6----|----7----|----8----|----9----|---10----|
/PROP/SHELL/4
t1.5mm
#   Ishell    Ismstr     Ish3n    Idrill
        24         0         0         0
#                 hm                  hf                  hr                  dm                  dn
                   0                   0                   0                   0                   0
#        N   Istrain               Thick              Ashear              Ithick     Iplas
         5         0                 1.5                   0                   1         1
#---1----|----2----|----3----|----4----|----5----|----6----|----7----|----8----|----9----|---10----|
/PROP/SHELL/9
t2.2mm.1
#   Ishell    Ismstr     Ish3n    Idrill
        24         0         0         0
#                 hm                  hf                  hr                  dm                  dn
                   0                   0                   0                   0                   0
#        N   Istrain               Thick              Ashear              Ithick     Iplas
         5         0                 2.2                   0                   1         1
#---1----|----2----|----3----|----4----|----5----|----6----|----7----|----8----|----9----|---10----|
/PROP/SPR_BEAM/16
SPOTWELD_NO_RUPTURE
#               Mass             Inertia   skew_ID   sens_ID    Isflag     Ifail     Ileng    Ifail2
                .002                 .02         0         0         0         0         0         0
#              KTens               CTens               ATens               BTens               DTens
                 100                   0                   0                   0                   0
#  fct_ID1     HTens   fct_ID2   fct_ID3   fct_ID4                 delta_minTens       delta_maxTens
        13         1         0         0         0                             0                   0
#                  F                   E              Ascale             Hscalex
                   0                   0                   0                   0
#              KTens               CTens               ATens               BTens               DTens
                 500                   0                   0                   0                   0
#  fct_ID1     HTens   fct_ID2   fct_ID3   fct_ID4                 delta_minTens       delta_maxTens
        14         1         0         0         0                             0                   0
#                  F                   E              Ascale             Hscalex
                   0                   0                   0                   0
#              KTens               CTens               ATens               BTens               DTens
                 500                   0                   0                   0                   0
#  fct_ID1     HTens   fct_ID2   fct_ID3   fct_ID4                 delta_minTens       delta_maxTens
        14         1         0         0         0                             0                   0
#                  F                   E              Ascale             Hscalex
                   0                   0                   0                   0
#                  K                   C                   A                   B                   D
                5000                   0                   0                   0                   0
#       N1         H        N2        N3        N4                     theta_min           theta_max
         0         1         0         0         0                             0                   0
#                  F                   E              Ascale             Hscalex
                   0                   0                   0                   0
#                  K                   C                   A                   B                   D
                5000                   0                   0                   0                   0
#       N1         H        N2        N3        N4                     theta_min           theta_max
         0         1         0         0         0                             0                   0
#                  F                   E              Ascale             Hscalex
                   0                   0                   0                   0
#                  K                   C                   A                   B                   D
                5000                   0                   0                   0                   0
#       N1         H        N2        N3        N4                     theta_min           theta_max
         0         1         0         0         0                             0                   0
#                  F                   E              Ascale             Hscalex
                   0                   0                   0                   0
#                 V0              Omega0
                   0                   0
#                  C                   n               alpha                beta
                   0                   0                   0                   0
                   0                   0                   0                   0
                   0                   0                   0                   0
                   0                   0                   0                   0
                   0                   0                   0                   0
                   0                   0                   0                   0
#---1----|----2----|----3----|----4----|----5----|----6----|----7----|----8----|----9----|---10----|
/PROP/SPR_BEAM/17
SPOTWELD_NO_RUPTURE.5
#               Mass             Inertia   skew_ID   sens_ID    Isflag     Ifail     Ileng    Ifail2
                .002                 .02         0         0         0         0         0         0
#              KTens               CTens               ATens               BTens               DTens
                 100                   0                   0                   0                   0
#  fct_ID1     HTens   fct_ID2   fct_ID3   fct_ID4                 delta_minTens       delta_maxTens
        15         1         0         0         0                             0                   0
#                  F                   E              Ascale             Hscalex
                   0                   0                   0                   0
#              KTens               CTens               ATens               BTens               DTens
                 500                   0                   0                   0                   0
#  fct_ID1     HTens   fct_ID2   fct_ID3   fct_ID4                 delta_minTens       delta_maxTens
        16         1         0         0         0                             0                   0
#                  F                   E              Ascale             Hscalex
                   0                   0                   0                   0
#              KTens               CTens               ATens               BTens               DTens
                 500                   0                   0                   0                   0
#  fct_ID1     HTens   fct_ID2   fct_ID3   fct_ID4                 delta_minTens       delta_maxTens
        16         1         0         0         0                             0                   0
#                  F                   E              Ascale             Hscalex
                   0                   0                   0                   0
#                  K                   C                   A                   B                   D
                5000                   0                   0                   0                   0
#       N1         H        N2        N3        N4                     theta_min           theta_max
         0         1         0         0         0                             0                   0
#                  F                   E              Ascale             Hscalex
                   0                   0                   0                   0
#                  K                   C                   A                   B                   D
                5000                   0                   0                   0                   0
#       N1         H        N2        N3        N4                     theta_min           theta_max
         0         1         0         0         0                             0                   0
#                  F                   E              Ascale             Hscalex
                   0                   0                   0                   0
#                  K                   C                   A                   B                   D
                5000                   0                   0                   0                   0
#       N1         H        N2        N3        N4                     theta_min           theta_max
         0         1         0         0         0                             0                   0
#                  F                   E              Ascale             Hscalex
                   0                   0                   0                   0
#                 V0              Omega0
                   0                   0
#                  C                   n               alpha                beta
                   0                   0                   0                   0
                   0                   0                   0                   0
                   0                   0                   0                   0
                   0                   0                   0                   0
                   0                   0                   0                   0
                   0                   0                   0                   0
#---1----|----2----|----3----|----4----|----5----|----6----|----7----|----8----|----9----|---10----|
/PROP/SPR_BEAM/18
SPOTWELD_NO_RUPTURE.6
#               Mass             Inertia   skew_ID   sens_ID    Isflag     Ifail     Ileng    Ifail2
                .002                 .02         0         0         0         0         0         0
#              KTens               CTens               ATens               BTens               DTens
                 100                   0                   0                   0                   0
#  fct_ID1     HTens   fct_ID2   fct_ID3   fct_ID4                 delta_minTens       delta_maxTens
        17         1         0         0         0                             0                   0
#                  F                   E              Ascale             Hscalex
                   0                   0                   0                   0
#              KTens               CTens               ATens               BTens               DTens
                 500                   0                   0                   0                   0
#  fct_ID1     HTens   fct_ID2   fct_ID3   fct_ID4                 delta_minTens       delta_maxTens
        18         1         0         0         0                             0                   0
#                  F                   E              Ascale             Hscalex
                   0                   0                   0                   0
#              KTens               CTens               ATens               BTens               DTens
                 500                   0                   0                   0                   0
#  fct_ID1     HTens   fct_ID2   fct_ID3   fct_ID4                 delta_minTens       delta_maxTens
        18         1         0         0         0                             0                   0
#                  F                   E              Ascale             Hscalex
                   0                   0                   0                   0
#                  K                   C                   A                   B                   D
                5000                   0                   0                   0                   0
#       N1         H        N2        N3        N4                     theta_min           theta_max
         0         1         0         0         0                             0                   0
#                  F                   E              Ascale             Hscalex
                   0                   0                   0                   0
#                  K                   C                   A                   B                   D
                5000                   0                   0                   0                   0
#       N1         H        N2        N3        N4                     theta_min           theta_max
         0         1         0         0         0                             0                   0
#                  F                   E              Ascale             Hscalex
                   0                   0                   0                   0
#                  K                   C                   A                   B                   D
                5000                   0                   0                   0                   0
#       N1         H        N2        N3        N4                     theta_min           theta_max
         0         1         0         0         0                             0                   0
#                  F                   E              Ascale             Hscalex
                   0                   0                   0                   0
#                 V0              Omega0
                   0                   0
#                  C                   n               alpha                beta
                   0                   0                   0                   0
                   0                   0                   0                   0
                   0                   0                   0                   0
                   0                   0                   0                   0
                   0                   0                   0                   0
                   0                   0                   0                   0
#---1----|----2----|----3----|----4----|----5----|----6----|----7----|----8----|----9----|---10----|
/PROP/SPR_BEAM/19
SPOTWELD_NO_RUPTURE.7
#               Mass             Inertia   skew_ID   sens_ID    Isflag     Ifail     Ileng    Ifail2
                .002                 .02         0         0         0         0         0         0
#              KTens               CTens               ATens               BTens               DTens
                 100                   0                   0                   0                   0
#  fct_ID1     HTens   fct_ID2   fct_ID3   fct_ID4                 delta_minTens       delta_maxTens
        19         1         0         0         0                             0                   0
#                  F                   E              Ascale             Hscalex
                   0                   0                   0                   0
#              KTens               CTens               ATens               BTens               DTens
                 500                   0                   0                   0                   0
#  fct_ID1     HTens   fct_ID2   fct_ID3   fct_ID4                 delta_minTens       delta_maxTens
        20         1         0         0         0                             0                   0
#                  F                   E              Ascale             Hscalex
                   0                   0                   0                   0
#              KTens               CTens               ATens               BTens               DTens
                 500                   0                   0                   0                   0
#  fct_ID1     HTens   fct_ID2   fct_ID3   fct_ID4                 delta_minTens       delta_maxTens
        20         1         0         0         0                             0                   0
#                  F                   E              Ascale             Hscalex
                   0                   0                   0                   0
#                  K                   C                   A                   B                   D
                5000                   0                   0                   0                   0
#       N1         H        N2        N3        N4                     theta_min           theta_max
         0         1         0         0         0                             0                   0
#                  F                   E              Ascale             Hscalex
                   0                   0                   0                   0
#                  K                   C                   A                   B                   D
                5000                   0                   0                   0                   0
#       N1         H        N2        N3        N4                     theta_min           theta_max
         0         1         0         0         0                             0                   0
#                  F                   E              Ascale             Hscalex
                   0                   0                   0                   0
#                  K                   C                   A                   B                   D
                5000                   0                   0                   0                   0
#       N1         H        N2        N3        N4                     theta_min           theta_max
         0         1         0         0         0                             0                   0
#                  F                   E              Ascale             Hscalex
                   0                   0                   0                   0
#                 V0              Omega0
                   0                   0
#                  C                   n               alpha                beta
                   0                   0                   0                   0
                   0                   0                   0                   0
                   0                   0                   0                   0
                   0                   0                   0                   0
                   0                   0                   0                   0
                   0                   0                   0                   0
#---1----|----2----|----3----|----4----|----5----|----6----|----7----|----8----|----9----|---10----|
/PROP/SPR_BEAM/20
SPOTWELD_NO_RUPTURE.8
#               Mass             Inertia   skew_ID   sens_ID    Isflag     Ifail     Ileng    Ifail2
                .002                 .02         0         0         0         0         0         0
#              KTens               CTens               ATens               BTens               DTens
                 100                   0                   0                   0                   0
#  fct_ID1     HTens   fct_ID2   fct_ID3   fct_ID4                 delta_minTens       delta_maxTens
        21         1         0         0         0                             0                   0
#                  F                   E              Ascale             Hscalex
                   0                   0                   0                   0
#              KTens               CTens               ATens               BTens               DTens
                 500                   0                   0                   0                   0
#  fct_ID1     HTens   fct_ID2   fct_ID3   fct_ID4                 delta_minTens       delta_maxTens
        22         1         0         0         0                             0                   0
#                  F                   E              Ascale             Hscalex
                   0                   0                   0                   0
#              KTens               CTens               ATens               BTens               DTens
                 500                   0                   0                   0                   0
#  fct_ID1     HTens   fct_ID2   fct_ID3   fct_ID4                 delta_minTens       delta_maxTens
        22         1         0         0         0                             0                   0
#                  F                   E              Ascale             Hscalex
                   0                   0                   0                   0
#                  K                   C                   A                   B                   D
                5000                   0                   0                   0                   0
#       N1         H        N2        N3        N4                     theta_min           theta_max
         0         1         0         0         0                             0                   0
#                  F                   E              Ascale             Hscalex
                   0                   0                   0                   0
#                  K                   C                   A                   B                   D
                5000                   0                   0                   0                   0
#       N1         H        N2        N3        N4                     theta_min           theta_max
         0         1         0         0         0                             0                   0
#                  F                   E              Ascale             Hscalex
                   0                   0                   0                   0
#                  K                   C                   A                   B                   D
                5000                   0                   0                   0                   0
#       N1         H        N2        N3        N4                     theta_min           theta_max
         0         1         0         0         0                             0                   0
#                  F                   E              Ascale             Hscalex
                   0                   0                   0                   0
#                 V0              Omega0
                   0                   0
#                  C                   n               alpha                beta
                   0                   0                   0                   0
                   0                   0                   0                   0
                   0                   0                   0                   0
                   0                   0                   0                   0
                   0                   0                   0                   0
                   0                   0                   0                   0
#---1----|----2----|----3----|----4----|----5----|----6----|----7----|----8----|----9----|---10----|
/PROP/SPR_BEAM/21
SPOTWELD_NO_RUPTURE.9
#               Mass             Inertia   skew_ID   sens_ID    Isflag     Ifail     Ileng    Ifail2
                .002                 .02         0         0         0         0         0         0
#              KTens               CTens               ATens               BTens               DTens
                 100                   0                   0                   0                   0
#  fct_ID1     HTens   fct_ID2   fct_ID3   fct_ID4                 delta_minTens       delta_maxTens
        23         1         0         0         0                             0                   0
#                  F                   E              Ascale             Hscalex
                   0                   0                   0                   0
#              KTens               CTens               ATens               BTens               DTens
                 500                   0                   0                   0                   0
#  fct_ID1     HTens   fct_ID2   fct_ID3   fct_ID4                 delta_minTens       delta_maxTens
        24         1         0         0         0                             0                   0
#                  F                   E              Ascale             Hscalex
                   0                   0                   0                   0
#              KTens               CTens               ATens               BTens               DTens
                 500                   0                   0                   0                   0
#  fct_ID1     HTens   fct_ID2   fct_ID3   fct_ID4                 delta_minTens       delta_maxTens
        24         1         0         0         0                             0                   0
#                  F                   E              Ascale             Hscalex
                   0                   0                   0                   0
#                  K                   C                   A                   B                   D
                5000                   0                   0                   0                   0
#       N1         H        N2        N3        N4                     theta_min           theta_max
         0         1         0         0         0                             0                   0
#                  F                   E              Ascale             Hscalex
                   0                   0                   0                   0
#                  K                   C                   A                   B                   D
                5000                   0                   0                   0                   0
#       N1         H        N2        N3        N4                     theta_min           theta_max
         0         1         0         0         0                             0                   0
#                  F                   E              Ascale             Hscalex
                   0                   0                   0                   0
#                  K                   C                   A                   B                   D
                5000                   0                   0                   0                   0
#       N1         H        N2        N3        N4                     theta_min           theta_max
         0         1         0         0         0                             0                   0
#                  F                   E              Ascale             Hscalex
                   0                   0                   0                   0
#                 V0              Omega0
                   0                   0
#                  C                   n               alpha                beta
                   0                   0                   0                   0
                   0                   0                   0                   0
                   0                   0                   0                   0
                   0                   0                   0                   0
                   0                   0                   0                   0
                   0                   0                   0                   0
#---1----|----2----|----3----|----4----|----5----|----6----|----7----|----8----|----9----|---10----|
/PROP/SHELL/22
SUBPART
#   Ishell    Ismstr     Ish3n    Idrill
        24         0         0         0
#                 hm                  hf                  hr                  dm                  dn
                   0                   0                   0                   0                   0
#        N   Istrain               Thick              Ashear              Ithick     Iplas
         5         0                 1.8               .8333                   1         1
#---1----|----2----|----3----|----4----|----5----|----6----|----7----|----8----|----9----|---10----|
#-  8. FUNCTIONS:
#---1----|----2----|----3----|----4----|----5----|----6----|----7----|----8----|----9----|---10----|
/FUNCT/13
funct_1
#                  X                   Y
                   0            1.143148                                                            
                .001            1.185715                                                            
                .002            1.215984                                                            
                .003             1.23962                                                            
                .004            1.259078                                                            
                .005            1.275651                                                            
                .006            1.290109                                                            
                .007            1.302945                                                            
                .008            1.314499                                                            
                .009             1.32501                                                            
                 .01            1.334659                                                            
               .0125             1.35582                                                            
                .015            1.373804                                                            
                 .02            1.403355                                                            
                .025            1.427197                                                            
                 .03            1.447234                                                            
                .035            1.464548                                                            
                 .04             1.47981                                                            
                .045             1.49347                                                            
                 .05            1.505843                                                            
# ... 55 like lines cut
#---1----|----2----|----3----|----4----|----5----|----6----|----7----|----8----|----9----|---10----|
/FUNCT/14
Spotweld shear function
#                  X                   Y
                -250              -25000                                                            
                -.25                 -25                                                            
                   0                   0                                                            
                 .25                  25                                                            
                 250               25000                                                            
#---1----|----2----|----3----|----4----|----5----|----6----|----7----|----8----|----9----|---10----|
/FUNCT/15
spotweld tensile function
#                  X                   Y
                -250               -8250                                                            
                -.25               -8.25                                                            
                   0                   0                                                            
                 .25                8.25                                                            
                 250                8250                                                            
#---1----|----2----|----3----|----4----|----5----|----6----|----7----|----8----|----9----|---10----|
/FUNCT/16
Spotweld shear function.1
#                  X                   Y
                -250              -25000                                                            
                -.25                 -25                                                            
                   0                   0                                                            
                 .25                  25                                                            
                 250               25000                                                            
#---1----|----2----|----3----|----4----|----5----|----6----|----7----|----8----|----9----|---10----|
/FUNCT/17
spotweld tensile function.2
#                  X                   Y
                -250              -10824                                                            
                -.25             -10.824                                                            
                   0                   0                                                            
                 .25              10.824                                                            
                 250               10824                                                            
#---1----|----2----|----3----|----4----|----5----|----6----|----7----|----8----|----9----|---10----|
/FUNCT/18
Spotweld shear function.3
#                  X                   Y
                -250              -32800                                                            
                -.25               -32.8                                                            
                   0                   0                                                            
                 .25                32.8                                                            
                 250               32800                                                            
#---1----|----2----|----3----|----4----|----5----|----6----|----7----|----8----|----9----|---10----|
/FUNCT/19
spotweld tensile function.4
#                  X                   Y
                -250              -10824                                                            
                -.25             -10.824                                                            
                   0                   0                                                            
                 .25              10.824                                                            
                 250               10824                                                            
#---1----|----2----|----3----|----4----|----5----|----6----|----7----|----8----|----9----|---10----|
/FUNCT/20
Spotweld shear function.5
#                  X                   Y
                -250              -32800                                                            
                -.25               -32.8                                                            
                   0                   0                                                            
                 .25                32.8                                                            
                 250               32800                                                            
#---1----|----2----|----3----|----4----|----5----|----6----|----7----|----8----|----9----|---10----|
/FUNCT/21
spotweld tensile function.6
#                  X                   Y
                -250               -8250                                                            
                -.25               -8.25                                                            
                   0                   0                                                            
                 .25                8.25                                                            
                 250                8250                                                            
#---1----|----2----|----3----|----4----|----5----|----6----|----7----|----8----|----9----|---10----|
/FUNCT/22
Spotweld shear function.7
#                  X                   Y
                -250              -25000                                                            
                -.25                 -25                                                            
                   0                   0                                                            
                 .25                  25                                                            
                 250               25000                                                            
#---1----|----2----|----3----|----4----|----5----|----6----|----7----|----8----|----9----|---10----|
/FUNCT/23
spotweld tensile function.8
#                  X                   Y
                -250               -8250                                                            
                -.25               -8.25                                                            
                   0                   0                                                            
                 .25                8.25                                                            
                 250                8250                                                            
#---1----|----2----|----3----|----4----|----5----|----6----|----7----|----8----|----9----|---10----|
/FUNCT/24
Spotweld shear function.9
#                  X                   Y
                -250              -25000                                                            
                -.25                 -25                                                            
                   0                   0                                                            
                 .25                  25                                                            
                 250               25000                                                            
#---1----|----2----|----3----|----4----|----5----|----6----|----7----|----8----|----9----|---10----|
#-  9. INITIAL VELOCITIES:
#---1----|----2----|----3----|----4----|----5----|----6----|----7----|----8----|----9----|---10----|
/INIVEL/TRA/2
move
#                 Vx                  Vy                  Vz   Gnod_id   Skew_id
                  -5                   0                   0       250         0
/GRNOD/GRNOD/250
INIVEL_group_248_of_GRNOD
       248       249
/GRNOD/PART/248
INIVEL_group_250_of_PART
         4         5         6        10        13        14        28        29        30        31
        32        33        34
/GRNOD/NODE/249
INIVEL_group_249_of_NODE
     14063
#---1----|----2----|----3----|----4----|----5----|----6----|----7----|----8----|----9----|---10----|
#- 10. INTERFACES:
#---1----|----2----|----3----|----4----|----5----|----6----|----7----|----8----|----9----|---10----|
/INTER/TYPE7/13
All_vs_All_wo_refined_part
#  Slav_id   Mast_id      Istf      Ithe      Igap                Ibag      Idel     Icurv      Iadm
        73        72         0         0         0                   0         2         0         0
#          Fscalegap             GAP_MAX             Fpenmax
                   0                   0                   0
#              Stmin               Stmax          %mesh_size               dtmin  Irem_gap
                   0                   0                   0                   0         0
#              Stfac                Fric              Gapmin              Tstart               Tstop
                   0                  .2                   1                   0                   0
#      IBC                        Inacti                VisS                VisF              Bumult
       000                             0                   0                   0                   0
#    Ifric    Ifiltr               Xfreq     Iform   sens_ID
         0         0                   0         2         0
/GRNOD/SURF/73
INTER_group_73_of_SURF
        72
/SURF/PART/72
INTER_group_72_of_PART
         4         5         6        10        13        14
#---1----|----2----|----3----|----4----|----5----|----6----|----7----|----8----|----9----|---10----|
/INTER/TYPE7/14
refined_self_part
#  Slav_id   Mast_id      Istf      Ithe      Igap                Ibag      Idel     Icurv      Iadm
       247       218         0         0         0                   0         2         0         0
#          Fscalegap             GAP_MAX             Fpenmax
                   0                   0                   0
#              Stmin               Stmax          %mesh_size               dtmin  Irem_gap
                   0                   0                   0                   0         0
#              Stfac                Fric              Gapmin              Tstart               Tstop
                   0                  .2                 .62                   0                   0
#      IBC                        Inacti                VisS                VisF              Bumult
       000                             0                   0                   0                   0
#    Ifric    Ifiltr               Xfreq     Iform   sens_ID
         0         0                   0         0         0
/GRNOD/SURF/247
INTER_group_175_of_SURF
       218
/SURF/PART/218
INTER_group_174_of_PART
        34
#---1----|----2----|----3----|----4----|----5----|----6----|----7----|----8----|----9----|---10----|
/INTER/TYPE2/16
new  Contact
#  Slav_id   Surf_id    Ignore  Spotflag     Level   Isearch      Idel                       Dsearch
      1011      1015         0         1         0         0         0                             0
/GRNOD/NODE/1011
INTER_group_1011_of_NODE
    214007    214008    214009    214010    214011    214012    214013    214014    214015    214016
    214017    214018    214019    214020    214021    214022    214023    214024    214025    214026
    214027    214028    214029    214030    214031    214032    214033    214034    214035    214036
    214037    214038    214039    214040    214041    214042    214043    214044    214045    214046
    214047    214048    214049    214050    214051    214052    214053    214054    214055    214056
    214057    214058    214059    214060    214061    214062    214063    214064    214065    214066
    214067    214068    214069    214070    214071    214072    214073    214074    214075    214076
    214077    214078    214079    214080    214081    214082    214083    214084    214085    214086
    214087    214088    214089    214090    214091    214092    214093    214094    214095    214096
    214097    214098    214099    214100    214101    214102    214103    214104    214105    214106
    214107    214108    214109    214110    214111    214112    214113    214114    214115    214116
    214117    214118    214119    214120    214121    214122    214123    214124    214125    214126
    214127    214128    214129    214130    214131    214132    214133    214134    214135    214136
    214137    214138    214139    214140    214141    214142    214143    214144    214145    214146
    214147    214148    214149    214150    214151    214152    214153    214154    214155    214156
    214157    214158    214159    214160    214161    214162    214163    214164    214165    214166
    214167    214168    214169    214170    214171    214172    214173    214174    214175    214176
    214177    214178    214179    214180    214181    214182    214183    214184    214185    214186
    214187    214188    214189    214190    214191    214192    214193    214194    214195    214196
    214197    214198    214199    214200    214201    214202    214203    214204    214205    214206
# ... 26 like lines cut
/SURF/GRSHEL/1015
INTER_group_1014_of_GRSHEL
      1014
/GRSHEL/SHEL/1014
INTER_group_1015_of_SHELL4N
    131749    131751    131757    131759    131761    131793    131795    131797    131805    131807
    131809    132193    132194    132199    132202    132203    132223    132224    132229    132232
    132233    132313    132314    132319    132322    132323    132337    132340    132341    132355
    132358    132359    132529    132530    132535    132538    132539    132559    132560    132565
    132568    132569    132649    132650    132655    132658    132659    132673    132676    132677
    132691    132694    132695    132787    132789    132795    132797    132799    132831    132833
    132835    132843    132845    132847    133231    133232    133237    133240    133241    133261
    133262    133267    133270    133271    133351    133352    133357    133360    133361    133375
    133378    133379    133393    133396    133397    133567    133568    133573    133576    133577
    133597    133598    133603    133606    133607    133687    133688    133693    133696    133697
    133711    133714    133715    133729    133732    133733    135177    135179    135187    135189
    135191    135224    135226    135228    135236    135238    135240    135293    135295    135301
    135303    135305    135337    135339    135341    135349    135351    135353
#---1----|----2----|----3----|----4----|----5----|----6----|----7----|----8----|----9----|---10----|
/INTER/TYPE2/17
SPOTWELD
#  Slav_id   Surf_id    Ignore  Spotflag     Level   Isearch      Idel                       Dsearch
        76        81         0         0         0         0         0                             0
/GRNOD/NODE/76
GROUP FOR SPOTWELD
    108084    108086    108088    108090    108092    108094    108096
/SURF/GRSHEL/81
GROUP FOR SPOTWELD.27
        79
/GRSHEL/SHEL/79
GROUP FOR SPOTWELD.12
      6686      6694      6706      6708      6715      6716      6723
#---1----|----2----|----3----|----4----|----5----|----6----|----7----|----8----|----9----|---10----|
/INTER/TYPE2/18
SPOTWELD.1
#  Slav_id   Surf_id    Ignore  Spotflag     Level   Isearch      Idel                       Dsearch
        78      1010         0         0         0         0         0                             0
/GRNOD/NODE/78
GROUP FOR SPOTWELD.1
    108085    108087    108089    108091    108093    108095    108097
/SURF/GRSHEL/1010
INTER_group_1009_of_GRSHEL
      1009
/GRSHEL/SHEL/1009
INTER_group_1010_of_SHELL4N
    123434    123505    123510    123516    123570    123821    123833    123836    123878
#---1----|----2----|----3----|----4----|----5----|----6----|----7----|----8----|----9----|---10----|
/INTER/TYPE2/19
SPOTWELD.2
#  Slav_id   Surf_id    Ignore  Spotflag     Level   Isearch      Idel                       Dsearch
        83        88         0         0         0         0         0                             0
/GRNOD/NODE/83
GROUP FOR SPOTWELD.2
    108098    108100    108102    108104    108106    108108    108110
/SURF/GRSHEL/88
GROUP FOR SPOTWELD.29
        86
/GRSHEL/SHEL/86
GROUP FOR SPOTWELD.14
      6725      6731      6733      6739      6743      6753      6758
#---1----|----2----|----3----|----4----|----5----|----6----|----7----|----8----|----9----|---10----|
/INTER/TYPE2/20
SPOTWELD.3
#  Slav_id   Surf_id    Ignore  Spotflag     Level   Isearch      Idel                       Dsearch
        85      1008         0         0         0         0         0                             0
/GRNOD/NODE/85
GROUP FOR SPOTWELD.3
    108099    108101    108103    108105    108107    108109    108111
/SURF/GRSHEL/1008
INTER_group_1007_of_GRSHEL
      1007
/GRSHEL/SHEL/1007
INTER_group_1008_of_SHELL4N
    123308    123348    123356    123363    123389    123665    123671    123707
#---1----|----2----|----3----|----4----|----5----|----6----|----7----|----8----|----9----|---10----|
/INTER/TYPE2/21
SPOTWELD.4
#  Slav_id   Surf_id    Ignore  Spotflag     Level   Isearch      Idel                       Dsearch
        90        95         0         0         0         0         0                             0
/GRNOD/NODE/90
GROUP FOR SPOTWELD.4
    108112    108114    108116    108118    108120    108122    108124    108126    108128    108130
    108132    108134    108136    108138    108140
/SURF/GRSHEL/95
GROUP FOR SPOTWELD.31
        93
/GRSHEL/SHEL/93
GROUP FOR SPOTWELD.16
      5677      5685      5720      5727      5767      5801      5813      6055      6063      6097
      6105      6137      6145      6183      6195
#---1----|----2----|----3----|----4----|----5----|----6----|----7----|----8----|----9----|---10----|
/INTER/TYPE2/22
SPOTWELD.5
#  Slav_id   Surf_id    Ignore  Spotflag     Level   Isearch      Idel                       Dsearch
        92        96         0         0         0         0         0                             0
/GRNOD/NODE/92
GROUP FOR SPOTWELD.5
    108113    108115    108117    108119    108121    108123    108125    108127    108129    108131
    108133    108135    108137    108139    108141
/SURF/GRSHEL/96
GROUP FOR SPOTWELD.32
        94
/GRSHEL/SHEL/94
GROUP FOR SPOTWELD.17
      6226      6248      6254      6279      6285      6313      6322      6562      6571      6594
      6603      6624      6633      6652      6670
#---1----|----2----|----3----|----4----|----5----|----6----|----7----|----8----|----9----|---10----|
/INTER/TYPE2/23
SPOTWELD.6
#  Slav_id   Surf_id    Ignore  Spotflag     Level   Isearch      Idel                       Dsearch
        97       102         0         0         0         0         0                             0
/GRNOD/NODE/97
GROUP FOR SPOTWELD.6
    108142    108144    108146    108148    108150    108152    108154    108156    108158    108160
    108162    108164    108166    108168    108170
/SURF/GRSHEL/102
GROUP FOR SPOTWELD.33
       100
/GRSHEL/SHEL/100
GROUP FOR SPOTWELD.18
     12436     12444     12479     12486     12526     12563     12572     12814     12822     12856
     12864     12896     12906     12942     12954
#---1----|----2----|----3----|----4----|----5----|----6----|----7----|----8----|----9----|---10----|
/INTER/TYPE2/24
SPOTWELD.7
#  Slav_id   Surf_id    Ignore  Spotflag     Level   Isearch      Idel                       Dsearch
        99       103         0         0         0         0         0                             0
/GRNOD/NODE/99
GROUP FOR SPOTWELD.7
    108143    108145    108147    108149    108151    108153    108155    108157    108159    108161
    108163    108165    108167    108169    108171
/SURF/GRSHEL/103
GROUP FOR SPOTWELD.34
       101
/GRSHEL/SHEL/101
GROUP FOR SPOTWELD.19
     12984     13007     13013     13038     13044     13072     13081     13321     13330     13353
     13362     13383     13387     13411     13429
#---1----|----2----|----3----|----4----|----5----|----6----|----7----|----8----|----9----|---10----|
/INTER/TYPE2/25
SPOTWELD.8
#  Slav_id   Surf_id    Ignore  Spotflag     Level   Isearch      Idel                       Dsearch
       104       109         0         0         0         0         0                             0
/GRNOD/NODE/104
GROUP FOR SPOTWELD.8
    108172    108174    108176    108178    108180    108182    108184
/SURF/GRSHEL/109
GROUP FOR SPOTWELD.35
       107
/GRSHEL/SHEL/107
GROUP FOR SPOTWELD.20
     13445     13455     13465     13467     13473     13475     13481
#---1----|----2----|----3----|----4----|----5----|----6----|----7----|----8----|----9----|---10----|
/INTER/TYPE2/26
SPOTWELD.9
#  Slav_id   Surf_id    Ignore  Spotflag     Level   Isearch      Idel                       Dsearch
       106      1006         0         0         0         0         0                             0
/GRNOD/NODE/106
GROUP FOR SPOTWELD.9
    108173    108175    108177    108179    108181    108183    108185
/SURF/GRSHEL/1006
INTER_group_1005_of_GRSHEL
      1005
/GRSHEL/SHEL/1005
INTER_group_1006_of_SHELL4N
    129722    129725    129760    130034    130039    130053    130064    130095    130107
#---1----|----2----|----3----|----4----|----5----|----6----|----7----|----8----|----9----|---10----|
/INTER/TYPE2/27
SPOTWELD.10
#  Slav_id   Surf_id    Ignore  Spotflag     Level   Isearch      Idel                       Dsearch
       111       116         0         0         0         0         0                             0
/GRNOD/NODE/111
GROUP FOR SPOTWELD.10
    108186    108188    108190    108192    108194    108196    108198
/SURF/GRSHEL/116
GROUP FOR SPOTWELD.37
       114
/GRSHEL/SHEL/114
GROUP FOR SPOTWELD.22
     13484     13490     13492     13498     13502     13507     13517
#---1----|----2----|----3----|----4----|----5----|----6----|----7----|----8----|----9----|---10----|
/INTER/TYPE2/28
SPOTWELD.11
#  Slav_id   Surf_id    Ignore  Spotflag     Level   Isearch      Idel                       Dsearch
       113      1004         0         0         0         0         0                             0
/GRNOD/NODE/113
GROUP FOR SPOTWELD.11
    108187    108189    108191    108193    108195    108197    108199
/SURF/GRSHEL/1004
INTER_group_1003_of_GRSHEL
      1003
/GRSHEL/SHEL/1003
INTER_group_1004_of_SHELL4N
    129570    129619    129751    129881    129901    129918    129988    130055
#---1----|----2----|----3----|----4----|----5----|----6----|----7----|----8----|----9----|---10----|
#- 11. RIGID WALLS:
#---1----|----2----|----3----|----4----|----5----|----6----|----7----|----8----|----9----|---10----|
/RWALL/CYL/29
Cylinder
#  node_ID     Slide grnod_ID1 grnod_ID2
                   2         0      1021
#           D_search                fric            Diameter                ffac       ifq
                  25                  .3                 254                   0         0
#                 XM                  YM                  ZM
                -170                   0                   0
#               X_M1                Y_M1                Z_M1
                -170                   0                   1
/GRNOD/NODE/1021
RWALL_group_1021_of_NODE
    108202    108402    115042    121086    152446    161937    186378    189616
#---1----|----2----|----3----|----4----|----5----|----6----|----7----|----8----|----9----|---10----|
#- 12. RIGID BODIES:
#---1----|----2----|----3----|----4----|----5----|----6----|----7----|----8----|----9----|---10----|
/RBODY/14063
rigid1
#     RBID     ISENS     NSKEW    ISPHER                MASS   Gnod_id     IKREM      ICOG   Surf_id
     14063         0         0         0                 500        30         0         0         0
#                Jxx                 Jyy                 Jzz
                  50                  50                  50
#                Jxy                 Jyz                 Jxz
                  50                  50                  50
#Ioptoff
         0
/GRNOD/NODE/30
RBODY_group_30_of_NODE
      5858      5908      5909      5910      5911      5912      5913      5914      5915      6056
      6057      6058      6059      6060      6061      6062      6063      6064      6065      6276
      6277      6278      6279      6280      6281      6282      6283      6473      6474      6475
      6476      6477      6478      6479      6606      6607      6608      6609      6610      6611
      6612      6613      6614      6615      6616      6848      6849      6850      6851      6852
      6853     12795     12845     12846     12847     12848     12849     12850     12851     12852
     12993     12994     12995     12996     12997     12998     12999     13000     13001     13002
     13213     13214     13215     13216     13217     13218     13219     13220     13410     13411
     13412     13413     13414     13415     13416     13543     13544     13545     13546     13547
     13548     13549     13550     13551     13552     13553     13785     13786     13787     13788
     13789     13790
#---1----|----2----|----3----|----4----|----5----|----6----|----7----|----8----|----9----|---10----|
#- 13. SECTIONS:
#---1----|----2----|----3----|----4----|----5----|----6----|----7----|----8----|----9----|---10----|
/SECT/1
CB_LHS
# node_ID1  node_ID2  node_ID3  grnod_ID    I_SAVE  Frame_ID                  Dt               alpha
      6412      6228      6416        36         0         0                  .1                1.65
# File name
                                                                                                    
# grbricID           grshel_ID  grrus_ID grbeam_ID grsprinID grtrianID    Ninter              Iframe
         0                  35         0         0         0         0         0                  12
/GRNOD/NODE/36
SECTION
      5870      5896      5958      5965      5966      5967      5977      5978      5979      6084
      6197      6201      6205      6212      6214      6217      6221      6228      6230      6300
      6391      6400      6402      6404      6412      6414      6416      6462      6490      6564
      6569      6571      6577      6579      6627      6761      6770      6772      6774      6775
      6781      6788      6789      6794      6796      6864      6938      6945      6946      6953
      6954
/GRSHEL/SHEL/35
SECTION.24
      5698      5700      5703      5704      5718      5720      5722      5724      5932      5934
      5942      5947      5949      5957      5959      5967      5972      5974      6125      6126
      6131      6132      6145      6146      6151      6152      6269      6272      6273      6284
      6287      6288      6449      6450      6455      6456      6457      6473      6475      6476
      6485      6488      6489      6629      6631      6632      6644      6646      6647
#---1----|----2----|----3----|----4----|----5----|----6----|----7----|----8----|----9----|---10----|
/SECT/2
link_section1
# node_ID1  node_ID2  node_ID3  grnod_ID    I_SAVE  Frame_ID                  Dt               alpha
      8564     10465      8571      1017         0         0                  .1                1.65
# File name
                                                                                                    
# grbricID           grshel_ID  grrus_ID grbeam_ID grsprinID grtrianID    Ninter              Iframe
         0                1016         0         0         0         0         0                  12
/GRNOD/NODE/1017
SECTION
      7204      7384      8564      8571      8945      9824     10465
/GRSHEL/SHEL/1016
SECTION
    124219    124221    124227    124229    124231    124257    124259    124261    124269    124271
    124273    128972    128974    128980    128982    128984    129007    129009    129015    129017
    129019    129122    129124    129130    129132    129134    129160    129162    129164    129172
    129174    129176    131429    131431    131437    131439    131441    131464    131466    131472
    131474    131476    131579    131581    131587    131589    131591    131617    131619    131621
    131629    131631    131633    135364    135366    135374    135376    135378    135411    135413
    135414    135423    135425    135427
#---1----|----2----|----3----|----4----|----5----|----6----|----7----|----8----|----9----|---10----|
/SECT/3
link_section2
# node_ID1  node_ID2  node_ID3  grnod_ID    I_SAVE  Frame_ID                  Dt               alpha
      1427      3328      4683      1019         0         0                  .1                1.65
# File name
                                                                                                    
# grbricID           grshel_ID  grrus_ID grbeam_ID grsprinID grtrianID    Ninter              Iframe
         0                1018         0         0         0         0         0                  12
/GRNOD/NODE/1019
SECTION
        67       247      1427      1808      2687      3328      4683
/GRSHEL/SHEL/1018
SECTION
    117889    117891    117899    117901    117903    117931    117933    117935    117943    117945
    117947    119340    119342    119346    119349    119351    119375    119377    119381    119384
    119386    119487    119489    119493    119496    119498    119522    119525    119527    119531
    119534    119536    121818    121820    121824    121827    121829    121853    121855    121859
    121862    121864    121965    121967    121971    121974    121976    122000    122003    122005
    122009    122012    122014    135106    135108    135114    135117    135118    135150    135153
    135154    135162    135164    135166
#---1----|----2----|----3----|----4----|----5----|----6----|----7----|----8----|----9----|---10----|
#- 14. TIME HISTORIES:
#---1----|----2----|----3----|----4----|----5----|----6----|----7----|----8----|----9----|---10----|
/TH/RBODY/1
rigid_th
#     var1      var2      var3      var4      var5      var6      var7      var8      var9     var10
DEF       
#     Obj1      Obj2      Obj3      Obj4      Obj5      Obj6      Obj7      Obj8      Obj9     Obj10
     14063
#---1----|----2----|----3----|----4----|----5----|----6----|----7----|----8----|----9----|---10----|
/TH/NODE/2
rigid_master_th
#     var1      var2      var3      var4      var5      var6      var7      var8      var9     var10
DEF       
#    NODid     Iskew                                           NODname
     14063         0Horst_Hugo                                                                      
#---1----|----2----|----3----|----4----|----5----|----6----|----7----|----8----|----9----|---10----|
/TH/SECTIO/4
SECTION_1
#     var1      var2      var3      var4      var5      var6      var7      var8      var9     var10
DEF       
#     Obj1      Obj2      Obj3      Obj4      Obj5      Obj6      Obj7      Obj8      Obj9     Obj10
         1
#---1----|----2----|----3----|----4----|----5----|----6----|----7----|----8----|----9----|---10----|
/TH/INTER/7
TH INTER
#     var1      var2      var3      var4      var5      var6      var7      var8      var9     var10
DEF       
#     Obj1      Obj2      Obj3      Obj4      Obj5      Obj6      Obj7      Obj8      Obj9     Obj10
        13
#---1----|----2----|----3----|----4----|----5----|----6----|----7----|----8----|----9----|---10----|
/TH/INTER/9
TH INTER.1
#     var1      var2      var3      var4      var5      var6      var7      var8      var9     var10
DEF       
#     Obj1      Obj2      Obj3      Obj4      Obj5      Obj6      Obj7      Obj8      Obj9     Obj10
        14
#---1----|----2----|----3----|----4----|----5----|----6----|----7----|----8----|----9----|---10----|
/TH/SUBS/10
coarse_mesh
#     var1      var2      var3      var4      var5      var6      var7      var8      var9     var10
DEF       
#     Obj1      Obj2      Obj3      Obj4      Obj5      Obj6      Obj7      Obj8      Obj9     Obj10
        12        15
#---1----|----2----|----3----|----4----|----5----|----6----|----7----|----8----|----9----|---10----|
/TH/SUBS/11
fine_mesh
#     var1      var2      var3      var4      var5      var6      var7      var8      var9     var10
DEF       
#     Obj1      Obj2      Obj3      Obj4      Obj5      Obj6      Obj7      Obj8      Obj9     Obj10
        69
#---1----|----2----|----3----|----4----|----5----|----6----|----7----|----8----|----9----|---10----|
/TH/SECTIO/16
SECTION_2
#     var1      var2      var3      var4      var5      var6      var7      var8      var9     var10
DEF       
#     Obj1      Obj2      Obj3      Obj4      Obj5      Obj6      Obj7      Obj8      Obj9     Obj10
         2
#---1----|----2----|----3----|----4----|----5----|----6----|----7----|----8----|----9----|---10----|
/TH/SECTIO/17
SECTION_3
#     var1      var2      var3      var4      var5      var6      var7      var8      var9     var10
DEF       
#     Obj1      Obj2      Obj3      Obj4      Obj5      Obj6      Obj7      Obj8      Obj9     Obj10
         3
#---1----|----2----|----3----|----4----|----5----|----6----|----7----|----8----|----9----|---10----|
/TH/RWALL/18
Cylinder
#     var1      var2      var3      var4      var5      var6      var7      var8      var9     var10
DEF       
#     Obj1      Obj2      Obj3      Obj4      Obj5      Obj6      Obj7      Obj8      Obj9     Obj10
        29
#---1----|----2----|----3----|----4----|----5----|----6----|----7----|----8----|----9----|---10----|
/END
#---1----|----2----|----3----|----4----|----5----|----6----|----7----|----8----|----9----|---10----|
