# RADIOSS
#--------------------------------------------------------------------------------------------------|
#- RADIOSS DECK WRITTEN BY HyperCrash
#HyperCrash 2019.1 (64 bits) 
#Wed Apr 15 13:22:07 2020
#-
#----------------------------
#
#-
#- DATE	Wed Apr 15 13:22:07 2020
#--------------------------------------------------------------------------------------------------|
#-  1. :
#---1----|----2----|----3----|----4----|----5----|----6----|----7----|----8----|----9----|---10----|
/ANIM/DT
#   TSTART     TFREQ
0.000000 8.000000
/ANIM/KEEPD
/ANIM/MASS
/DT
0.900000 0.000000
/MON/ON
/PRINT/-100/55
/RFILE
#   NCYCLE
14000
/RUN/DIF24416/1
                 550
/TFILE/4
#            dT_HIS
0.100000
/VERS/2019
/ANIM/VECT/CONT
/ANIM/VECT/VEL
/ANIM/NODA/DT
/ANIM/NODA/DMAS
/ANIM/ELEM/HOURG
/ANIM/ELEM/ENER
/ANIM/ELEM/ENER
/ANIM/BRICK/VONM
/ANIM/BRICK/TENS/STRESS/000
/ANIM/BRICK/TENS/STRAIN/000
/END/ENGINE
#---1----|----2----|----3----|----4----|----5----|----6----|----7----|----8----|----9----|---10----|
/BEGIN
DIF24416                                                                        
      2019         0
                   g                  mm                  ms
                   g                  mm                  ms
#---1----|----2----|----3----|----4----|----5----|----6----|----7----|----8----|----9----|---10----|
#-  2. CONTROL CARDS:
#---1----|----2----|----3----|----4----|----5----|----6----|----7----|----8----|----9----|---10----|
/TITLE
One gear train Interface 17
#---1----|----2----|----3----|----4----|----5----|----6----|----7----|----8----|----9----|---10----|
#-  3. MATERIALS:
#---1----|----2----|----3----|----4----|----5----|----6----|----7----|----8----|----9----|---10----|
/MAT/PLAS_JOHNS/1
Steel material
#              RHO_I
               .0078                   0
#                  E                  Nu     Iflag
              210000                 .29         0
#                  a                   b                   n           EPS_p_max            SIG_max0
                1E30                   0                   0                   0                   0
#                  c           EPS_DOT_0       ICC   Fsmooth               F_cut               Chard
                   0                   0         0         0                   0                   0
#                  m              T_melt              rhoC_p                 T_r
                   0                   0                   0                   0
#---1----|----2----|----3----|----4----|----5----|----6----|----7----|----8----|----9----|---10----|
#-  4. NODES:
#---1----|----2----|----3----|----4----|----5----|----6----|----7----|----8----|----9----|---10----|
/NODE
         1                   0                   0                   0
         2               32.38              374.81                  -2
         4               27.35              391.17                  -2
         6                19.8              408.52                  -2
         7               14.68              418.18                  -2
         8              -32.38              374.81                  -2
        10              -27.35              391.17                  -2
        12               -19.8              408.52                  -2
        13              -14.68              418.18                  -2
        14              -10.12              405.87                  -2
        17                   0                 420                  -2
        19               34.79              355.38                  -2
        20               54.32               325.5                  -2
        22               -36.3                 328                  -2
        23                   0                 330                  -2
        24                   0                 300                  -2
        25                  33              298.18                  -2
        27               49.38              295.91                  -2
        28                 -33              298.18                  -2
        30               51.85               310.7                  -2
# ... 10735 like lines cut
#---1----|----2----|----3----|----4----|----5----|----6----|----7----|----8----|----9----|---10----|
#-  5. BOUNDARY CONDITIONS:
#---1----|----2----|----3----|----4----|----5----|----6----|----7----|----8----|----9----|---10----|
/BCS/1
boundary condition 1
#  Tra rot   skew_ID  grnod_ID
   111 110         0         3
/GRNOD/NODE/3
New RBODY 40_master
     11901     12090
#---1----|----2----|----3----|----4----|----5----|----6----|----7----|----8----|----9----|---10----|
/BCS/2
boundary condition 2
#  Tra rot   skew_ID  grnod_ID
   111 111         0        22
/GRNOD/NODE/22
estern_0_8_master40
    111901
#---1----|----2----|----3----|----4----|----5----|----6----|----7----|----8----|----9----|---10----|
#-  6. SKEWS & FRAMES:
#---1----|----2----|----3----|----4----|----5----|----6----|----7----|----8----|----9----|---10----|
/FRAME/FIX/1
FRAME 1
#                 OX                  OY                  OZ
                   0                 760                   8
#                 X1                  Y1                  Z1
                   0                   1                   0
#                 X2                  Y2                  Z2
                   0                   0                   1
#---1----|----2----|----3----|----4----|----5----|----6----|----7----|----8----|----9----|---10----|
/FRAME/FIX/2
FRAME 2
#                 OX                  OY                  OZ
                   0                   0                   8
#                 X1                  Y1                  Z1
                   0                   1                   0
#                 X2                  Y2                  Z2
                   0                   0                   1
#---1----|----2----|----3----|----4----|----5----|----6----|----7----|----8----|----9----|---10----|
#-  7. PARTS:
#---1----|----2----|----3----|----4----|----5----|----6----|----7----|----8----|----9----|---10----|
/PART/1
SOLID1
         1         1         0
#---1----|----2----|----3----|----4----|----5----|----6----|----7----|----8----|----9----|---10----|
# BRIC20 elements of /PART/1/SOLID1:
#---1----|----2----|----3----|----4----|----5----|----6----|----7----|----8----|----9----|---10----|
/BRIC20/1
         1      3237        28        39      3240      3368       159       170      3371
      1016      1022      1024      4229      4230      1023       692      4240
      1061       694       695      4273
         2        28        37        48        39       159       168       179       170
      1021       985       986      1022      1023       683       719       692
       685       682       691       694
         3        37        24        45        48       168       155       176       179
      1010       983       981       985       683      1011       716       719
       684       718       715       682
         4        24        36        40        45       155       167       171       176
      1009      1040       984       983      1011       679       698       716
       680       678       697       718
         5        36        25        31        40       167       156       162       171
      1014      1013      1032      1040       679      1015      1033       698
       681      1060       699       678
         6        25        27        30        31       156       158       161       162
      1012      1019      1029      1013      1015      1020      1030      1033
      1059      1063      1064      1060
         7      3240        39        22      3230      3371       170       153      3361
      1024      1005      1002      4209      4240       692      1006      4211
# ... 2830 like lines cut
#---1----|----2----|----3----|----4----|----5----|----6----|----7----|----8----|----9----|---10----|
/PART/2
SOLID1
         2         1         0
#---1----|----2----|----3----|----4----|----5----|----6----|----7----|----8----|----9----|---10----|
# SHEL16 elements of /PART/2/SOLID1:
#---1----|----2----|----3----|----4----|----5----|----6----|----7----|----8----|----9----|---10----|
/SHEL16/2
        17       185       183        52        54       172       180        49        41
       731       733       994       736
       700       721       967       702
        20       184        53        51       182       173        42        19       150
       734       992       729       727
       705       972      1046       706
        21       145       148        17        14       143       144        13        12
      1051      1045      1043      1044
      1047      1042       670       672
        23       186        55        17       148       137         6         7       138
       739       998      1045       740
       643       641       646      1069
        24       183       187        56        52       180       139         8        49
       732       649       650       733
       722       667       666       721
        27       182        51        57       188       150        19         2       133
       729       654       653       728
      1046      1026      1027      1054
        28       187       189        58        56       139       141        10         8
       743       658       647       649
# ... 550 like lines cut
#---1----|----2----|----3----|----4----|----5----|----6----|----7----|----8----|----9----|---10----|
/PART/3
SOLID1
         3         1         0
#---1----|----2----|----3----|----4----|----5----|----6----|----7----|----8----|----9----|---10----|
# SHEL16 elements of /PART/3/SOLID1:
#---1----|----2----|----3----|----4----|----5----|----6----|----7----|----8----|----9----|---10----|
/SHEL16/3
        52       505       503       372       374       492       500       369       361
       962       873       871       875
       950       864       850       852
        55       504       373       371       502       493       362       339       470
       874       868       870       960
       854       782       784       904
        56       465       468       337       334       463       464       333       332
       900       781       776       779
       897       775       771       773
        58       506       375       337       468       457       326       327       458
       877       780       781       903
       761       759       763       889
        59       503       507       376       372       500       459       328       369
       963       879       872       873
       893       767       765       864
        62       502       371       377       508       470       339       322       453
       870       869       881       961
       784       753       755       885
        63       507       509       378       376       459       461       330       328
       965       882       878       879
# ... 550 like lines cut
#---1----|----2----|----3----|----4----|----5----|----6----|----7----|----8----|----9----|---10----|
/PART/7
Momentum_Spring
        22         0         0
#---1----|----2----|----3----|----4----|----5----|----6----|----7----|----8----|----9----|---10----|
# SPRING elements of /PART/7/Momentum_Spring:
#---1----|----2----|----3----|----4----|----5----|----6----|----7----|----8----|----9----|---10----|
/SPRING/7
         1    111901     11902                                        
#---1----|----2----|----3----|----4----|----5----|----6----|----7----|----8----|----9----|---10----|
#-  8. GEOMETRICAL SETS:
#---1----|----2----|----3----|----4----|----5----|----6----|----7----|----8----|----9----|---10----|
/PROP/SOLID/1
SOLID1
#   Isolid    Ismstr               Icpre               Inpts    Itetra    Iframe                  dn
        16         0                   0                 222         0         0                   0
#                q_a                 q_b                   h            LAMBDA_V                MU_V
                   0                   0                   0                   0                   0
#             dt_min   istrain      IHKT
                   0         0         0
#---1----|----2----|----3----|----4----|----5----|----6----|----7----|----8----|----9----|---10----|
/PROP/TYPE20/2
thick shell 1
#   Isolid    Ismstr               Icpre     Icstr     Inpts      Iint                            dn
        16         0                   0         0       222         0                             0
#                q_a                 q_b                   h
                   0                   0                   0
#             dt_min   Istrain
                   0         0
#---1----|----2----|----3----|----4----|----5----|----6----|----7----|----8----|----9----|---10----|
/PROP/TYPE20/3
thick shell 2
#   Isolid    Ismstr               Icpre     Icstr     Inpts      Iint                            dn
        16         0                   0         0       222         0                             0
#                q_a                 q_b                   h
                   0                   0                   0
#             dt_min   Istrain
                   0         0
#---1----|----2----|----3----|----4----|----5----|----6----|----7----|----8----|----9----|---10----|
/PROP/SPR_BEAM/22
SPRI_13_Bolt Momentum SPRING
#               Mass             Inertia   skew_ID   sens_ID    Isflag     Ifail     Ileng    Ifail2
                .015                 .15         0         0         0         0         0         0
#              KTens               CTens               ATens               BTens               DTens
                1000                   0                   0                   0                   0
#  fct_ID1     HTens   fct_ID2   fct_ID3   fct_ID4                 delta_minTens       delta_maxTens
         0         0         0         0         0                             0                   0
#                  F                   E              Ascale             Hscalex
                   0                   0                   0                   0
#              KTens               CTens               ATens               BTens               DTens
                1000                   0                   0                   0                   0
#  fct_ID1     HTens   fct_ID2   fct_ID3   fct_ID4                 delta_minTens       delta_maxTens
         0         0         0         0         0                             0                   0
#                  F                   E              Ascale             Hscalex
                   0                   0                   0                   0
#              KTens               CTens               ATens               BTens               DTens
                1000                   0                   0                   0                   0
#  fct_ID1     HTens   fct_ID2   fct_ID3   fct_ID4                 delta_minTens       delta_maxTens
         0         0         0         0         0                             0                   0
#                  F                   E              Ascale             Hscalex
                   0                   0                   0                   0
#                  K                   C                   A                   B                   D
                1000                   0                   0                   0                   0
#       N1         H        N2        N3        N4                     theta_min           theta_max
         2         0         0         0         0                             0                   0
#                  F                   E              Ascale             Hscalex
                   0                   0                   0                   0
#                  K                   C                   A                   B                   D
                   0                   0                   0                   0                   0
#       N1         H        N2        N3        N4                     theta_min           theta_max
         0         0         0         0         0                             0                   0
#                  F                   E              Ascale             Hscalex
                   0                   0                   0                   0
#                  K                   C                   A                   B                   D
                1000                   0                   0                   0                   0
#       N1         H        N2        N3        N4                     theta_min           theta_max
         0         0         0         0         0                             0                   0
#                  F                   E              Ascale             Hscalex
                   0                   0                   0                   0
#                 V0              Omega0                Fcut   Fsmooth
                   0                   0                   0         0
#                  C                   n               alpha                beta
                   0                   0                   0                   0
                   0                   0                   0                   0
                   0                   0                   0                   0
                   0                   0                   0                   0
                   0                   0                   0                   0
                   0                   0                   0                   0
#---1----|----2----|----3----|----4----|----5----|----6----|----7----|----8----|----9----|---10----|
#-  9. FUNCTIONS:
#---1----|----2----|----3----|----4----|----5----|----6----|----7----|----8----|----9----|---10----|
/FUNCT/2
spring momentum stiffness
#                  X                   Y
                   0             -100000
                   1             -100000
#---1----|----2----|----3----|----4----|----5----|----6----|----7----|----8----|----9----|---10----|
/FUNCT/19
rotation
#                  X                   Y
                   0               .0118
                 500               .0128
#---1----|----2----|----3----|----4----|----5----|----6----|----7----|----8----|----9----|---10----|
#- 10. INITIAL VELOCITIES:
#---1----|----2----|----3----|----4----|----5----|----6----|----7----|----8----|----9----|---10----|
/INIVEL/AXIS/1
INIVEL 1
#      DIR  FRAME_ID  GRNOD_ID
         Z         1        17
#                Vxt                 Vyt                 Vzt                  VR
                   0                   0                   0               .0118
/GRNOD/GRNOD/17
INIVEL_group_15_of_GRNOD
        15        16
/GRNOD/PART/15
INIVEL_group_17_of_PART
         3
/GRNOD/NODE/16
INIVEL_group_16_of_NODE
       321       340       342       343       344       345       347       348       349       350
       351       352       353       354       355       356       357       358       359       360
       363       364       365       368       370       452       471       473       474       475
       476       478       479       480       481       482       483       484       485       486
       487       488       489       490       491       494       495       496       499       501
       777       785       786       787       788       789       791       792       793       794
       795       796       797       798       800       801       802       803       804       805
       806       807       808       811       812       813       814       815       816       818
       820       821       823       824       825       827       828       830       831       832
       834       835       836       838       839       840       841       842       843       844
       845       847       848       851       853       855       857       858       860       865
       866       901       906       907       908       909       910       911       912       913
       914       915       916       917       918       919       920       921       922       923
       925       926       927       928       929       930       931       932       933       934
       935       936       937       938       939       940       941       942       943       944
       945       946       947       948       949       951       952       953       954       955
       956       958       959      1390      1391      1410      1412      1413      1414      1415
      1417      1418      1419      1421      1422      1423      1424      1425      1426      1427
      1428      1429      1430      1433      1434      1435      1438      1440      1522      1541
      1543      1544      1545      1546      1548      1549      1550      1552      1553      1554
# ... 283 like lines cut
#---1----|----2----|----3----|----4----|----5----|----6----|----7----|----8----|----9----|---10----|
/INIVEL/AXIS/2
INIVEL 2
#      DIR  FRAME_ID  GRNOD_ID
         Z         2        21
#                Vxt                 Vyt                 Vzt                  VR
                   0                   0                   0              -.0118
/GRNOD/GRNOD/21
INIVEL_group_18_of_GRNOD
        18        19        20
/GRNOD/NODE/18
INIVEL_group_21_of_NODE
         1       132      1071      1202      2141      2272      3211      3342      4281      4412
      5351      5482      6421      6552      7491      7622      8561      8692      9631      9762
     10701     10832     11771     11901     11902     12841     12972     13911     14042     14981
     15112     16051     16182     17121     17252     18191     18322     19261     19392
/GRNOD/PART/19
INIVEL_group_20_of_PART
         2
/GRNOD/NODE/20
INIVEL_group_19_of_NODE
        20        22        23        24        25        27        28        30        31        32
        33        34        35        36        37        38        39        40        43        44
        45        48        50       151       153       154       155       156       158       159
       161       162       163       164       165       166       167       168       169       170
       171       174       175       176       179       181       651       656       659       663
       673       674       675       677       678       679       680       681       682       683
       684       685       686       687       688       689       690       691       693       694
       695       696       697       699       701       703       704       707       709       710
       711       713       714       715       717       718       723       724       726       735
       737       741       748       750       968       969       970       971       973       974
       975       976       977       978       979       980       981       982       983       984
       985       986       988       989       990       991       995       996       997       999
      1000      1001      1002      1005      1006      1007      1009      1010      1011      1012
      1013      1014      1015      1016      1019      1020      1021      1022      1023      1024
      1029      1031      1032      1035      1036      1038      1040      1052      1055      1056
      1058      1059      1060      1061      1063      1064      1065      1090      1092      1093
      1094      1095      1097      1098      1100      1101      1102      1103      1104      1105
      1106      1107      1108      1109      1110      1113      1114      1115      1118      1120
      1221      1223      1224      1225      1226      1228      1229      1231      1232      1233
      1234      1235      1236      1237      1238      1239      1240      1241      1244      1245
# ... 279 like lines cut
#---1----|----2----|----3----|----4----|----5----|----6----|----7----|----8----|----9----|---10----|
#- 11. INTERFACES:
#---1----|----2----|----3----|----4----|----5----|----6----|----7----|----8----|----9----|---10----|
/INTER/LAGMUL/TYPE17/1
sliding
#    Slave    Master
         6         2
#                        Itied
                             0
/GRBRIC/PART/6
slave 
         3
/GRBRIC/PART/2
master thick tooth
         2
#---1----|----2----|----3----|----4----|----5----|----6----|----7----|----8----|----9----|---10----|
#- 12. RIGID BODIES:
#---1----|----2----|----3----|----4----|----5----|----6----|----7----|----8----|----9----|---10----|
/RBODY/39
rigid 1
#     RBID     ISENS     NSKEW    ISPHER                MASS   Gnod_id     IKREM      ICOG   Surf_id
     12090         0         0         0                   0         9         0         3         0
#                Jxx                 Jyy                 Jzz
                   0                   0                   0
#                Jxy                 Jyz                 Jxz
                   0                   0                   0
#  Ioptoff   Iexpams
         0         0
/GRNOD/NODE/9
New GRNOD 158 _nodes_subsubgroup_
       321       344       345       347       348       356       357       452       475       476
       478       479       487       488       800       801       803       804       806       807
       808       812       813       815       839       841       917       918       920       922
       923       926      1391      1414      1415      1417      1418      1426      1427      1522
      1545      1546      1548      1549      1557      1558      1870      1871      1873      1874
      1876      1877      1878      1882      1883      1885      1909      1911      1987      1988
      1990      1992      1993      1996      2461      2484      2485      2488      2496      2497
      2592      2615      2616      2619      2627      2628      2940      2941      2943      2944
      2946      2947      2948      2953      2955      2979      2981      3057      3058      3060
      3062      3063      3066      3531      3554      3555      3557      3558      3566      3567
      3662      3685      3686      3688      3689      3697      3698      4010      4011      4013
      4014      4016      4017      4018      4022      4023      4025      4049      4051      4127
      4128      4130      4132      4133      4136      4601      4624      4625      4627      4628
      4636      4637      4732      4755      4756      4758      4759      4767      4768      5080
      5081      5083      5084      5086      5087      5088      5092      5093      5095      5119
      5121      5197      5198      5200      5202      5203      5206      5671      5694      5695
      5696      5697      5698      5706      5707      5802      5825      5826      5827      5828
      5829      5837      5838      6150      6151      6153      6154      6156      6157      6158
      6160      6162      6163      6165      6189      6191      6267      6268      6270      6272
      6273      6276      6741      6764      6765      6768      6776      6777      6872      6895
# ... 41 like lines cut
#---1----|----2----|----3----|----4----|----5----|----6----|----7----|----8----|----9----|---10----|
/RBODY/40
rigid 2
#     RBID     ISENS     NSKEW    ISPHER                MASS   Gnod_id     IKREM      ICOG   Surf_id
     11901         0         0         0                   0        10         0         3         0
#                Jxx                 Jyy                 Jzz
                   0                   0                   0
#                Jxy                 Jyz                 Jxz
                   0                   0                   0
#  Ioptoff   Iexpams
         0         0
/GRNOD/NODE/10
New GRNOD 163 _nodes_subsubgroup_
         1        24        25        27        28        36        37       132       155       156
       158       159       167       168       679       680       681       683       684       685
      1009      1010      1011      1012      1014      1015      1016      1020      1021      1023
      1059      1061      1071      1094      1095      1097      1098      1106      1107      1202
      1225      1226      1228      1229      1237      1238      1749      1750      1751      1753
      1754      1755      2079      2080      2081      2082      2084      2085      2086      2090
      2091      2093      2129      2131      2141      2164      2165      2167      2168      2176
      2177      2272      2295      2296      2298      2299      2307      2308      2819      2820
      2821      2823      2824      2825      3149      3150      3151      3152      3154      3155
      3156      3160      3161      3163      3199      3201      3211      3234      3235      3237
      3238      3246      3247      3342      3365      3366      3368      3369      3377      3378
      3889      3890      3891      3893      3894      3895      4219      4220      4221      4222
      4224      4225      4226      4230      4231      4233      4269      4271      4281      4304
      4305      4307      4308      4316      4317      4412      4435      4436      4438      4439
      4447      4448      4959      4960      4961      4963      4964      4965      5289      5290
      5291      5292      5294      5295      5296      5300      5301      5303      5339      5341
      5351      5374      5375      5377      5378      5386      5387      5482      5505      5506
      5508      5509      5517      5518      6029      6030      6031      6033      6034      6035
      6359      6360      6361      6362      6364      6365      6366      6370      6371      6373
      6409      6411      6421      6444      6445      6446      6447      6448      6456      6457
# ... 41 like lines cut
#---1----|----2----|----3----|----4----|----5----|----6----|----7----|----8----|----9----|---10----|
#- 13. IMPOSED VELOCITIES:
#---1----|----2----|----3----|----4----|----5----|----6----|----7----|----8----|----9----|---10----|
/IMPVEL/1
imposed rotation
#funct_IDT       Dir   skew_ID sensor_ID  grnod_ID  frame_ID     Icoor
        19        ZZ         0         0         6         0         0
#           Ascale_x            Fscale_Y              Tstart               Tstop
                   1                   1                   0                   0
/GRNOD/NODE/6
New RBODY 39_master
     12090
#---1----|----2----|----3----|----4----|----5----|----6----|----7----|----8----|----9----|---10----|
#- 14. TIME HISTORIES:
#---1----|----2----|----3----|----4----|----5----|----6----|----7----|----8----|----9----|---10----|
/TH/RBODY/1
output Rbody
#     var1      var2      var3      var4      var5      var6      var7      var8      var9     var10
DEF       
#     Obj1      Obj2      Obj3      Obj4      Obj5      Obj6      Obj7      Obj8      Obj9     Obj10
        39        40
#---1----|----2----|----3----|----4----|----5----|----6----|----7----|----8----|----9----|---10----|
/TH/NODE/2
output nodes
#     var1      var2      var3      var4      var5      var6      var7      var8      var9     var10
DEF       
#    NODid     Iskew                                           NODname
      5809         0                                                                                
      5811         0                                                                                
      5813         0                                                                                
      5814         0                                                                                
      5842         0                                                                                
      5850         0                                                                                
      6242         0                                                                                
      6243         0                                                                                
      6245         0                                                                                
      6300         0                                                                                
     11901         0                                                                                
     12090         0                                                                                
#---1----|----2----|----3----|----4----|----5----|----6----|----7----|----8----|----9----|---10----|
/TH/NODE/12
output nodes
#     var1      var2      var3      var4      var5      var6      var7      var8      var9     var10
VRZ       
#    NODid     Iskew                                           NODname
     12090         0                                                                                
#---1----|----2----|----3----|----4----|----5----|----6----|----7----|----8----|----9----|---10----|
/END
#---1----|----2----|----3----|----4----|----5----|----6----|----7----|----8----|----9----|---10----|
