#RADIOSS STARTER
/BEGIN
RUBBER - Ogden block compression (pyradioss example)
/NODE
         1        0.0000000000        0.0000000000        0.0000000000
         2        2.5000000000        0.0000000000        0.0000000000
         3        5.0000000000        0.0000000000        0.0000000000
         4        7.5000000000        0.0000000000        0.0000000000
         5       10.0000000000        0.0000000000        0.0000000000
         6        0.0000000000        2.5000000000        0.0000000000
         7        2.5000000000        2.5000000000        0.0000000000
         8        5.0000000000        2.5000000000        0.0000000000
         9        7.5000000000        2.5000000000        0.0000000000
        10       10.0000000000        2.5000000000        0.0000000000
        11        0.0000000000        5.0000000000        0.0000000000
        12        2.5000000000        5.0000000000        0.0000000000
        13        5.0000000000        5.0000000000        0.0000000000
        14        7.5000000000        5.0000000000        0.0000000000
        15       10.0000000000        5.0000000000        0.0000000000
        16        0.0000000000        7.5000000000        0.0000000000
        17        2.5000000000        7.5000000000        0.0000000000
        18        5.0000000000        7.5000000000        0.0000000000
        19        7.5000000000        7.5000000000        0.0000000000
        20       10.0000000000        7.5000000000        0.0000000000
# ... 105 like lines cut
/BRICK/1
         1         1         2         7         6        26        27        32        31
         2         2         3         8         7        27        28        33        32
         3         3         4         9         8        28        29        34        33
         4         4         5        10         9        29        30        35        34
         5         6         7        12        11        31        32        37        36
         6         7         8        13        12        32        33        38        37
         7         8         9        14        13        33        34        39        38
         8         9        10        15        14        34        35        40        39
         9        11        12        17        16        36        37        42        41
        10        12        13        18        17        37        38        43        42
        11        13        14        19        18        38        39        44        43
        12        14        15        20        19        39        40        45        44
        13        16        17        22        21        41        42        47        46
        14        17        18        23        22        42        43        48        47
        15        18        19        24        23        43        44        49        48
        16        19        20        25        24        44        45        50        49
        17        26        27        32        31        51        52        57        56
        18        27        28        33        32        52        53        58        57
        19        28        29        34        33        53        54        59        58
        20        29        30        35        34        54        55        60        59
# ... 44 like lines cut
/PART/1
rubber block
         1         1
/MAT/LAW42/1
rubber Mooney-Rivlin (G0 = 1 MPa)
    1.0e-6
    0.0008   -0.0002
       2.0      -2.0
     0.495
/PROP/SOLID/1
default solid
       1.1      0.05       0.1
/GRNOD/NODE/1
base z=0
1 2 3 4 5 6 7 8 9 10 11 12 13 14 15 16 17 18 19 20 21 22 23 24 25
/GRNOD/NODE/2
top face z=L
101 102 103 104 105 106 107 108 109 110 111 112 113 114 115 116 117 118 119 120 121 122 123 124 125
/BCS/1
base: held in z (lateral free -> it can spread)
       001       000         0         1
/FUNCT/1
smooth push then hold compressed
       0.0       0.0
     0.250       1.0
     2.250       1.0
     2.500       0.0
     100.0       0.0
/IMPVEL/1
crush top face in -Z
         1         Z         2    -2.000
/TH/NODE/1
top corner node
DZ VZ
101
/TH/PART/2
block energies
IE KE
1
/END
