#RADIOSS STARTER
/BEGIN
IMPLCANT
      2022         0
                  Mg                  mm                   s
                  Mg                  mm                   s
/NODE
#   node_ID                   X                   Y                   Z
         1                 0.0                 0.0                 0.0
         2                 5.0                 0.0                 0.0
         3                10.0                 0.0                 0.0
         4                15.0                 0.0                 0.0
         5                20.0                 0.0                 0.0
         6                25.0                 0.0                 0.0
         7                30.0                 0.0                 0.0
         8                35.0                 0.0                 0.0
         9                40.0                 0.0                 0.0
        10                45.0                 0.0                 0.0
        11                50.0                 0.0                 0.0
        12                55.0                 0.0                 0.0
        13                60.0                 0.0                 0.0
        14                65.0                 0.0                 0.0
        15                70.0                 0.0                 0.0
        16                75.0                 0.0                 0.0
        17                80.0                 0.0                 0.0
        18                85.0                 0.0                 0.0
        19                90.0                 0.0                 0.0
        20                95.0                 0.0                 0.0
# ... 43 like lines cut
/SHELL/1
         1         1         2        23        22
         2         2         3        24        23
         3         3         4        25        24
         4         4         5        26        25
         5         5         6        27        26
         6         6         7        28        27
         7         7         8        29        28
         8         8         9        30        29
         9         9        10        31        30
        10        10        11        32        31
        11        11        12        33        32
        12        12        13        34        33
        13        13        14        35        34
        14        14        15        36        35
        15        15        16        37        36
        16        16        17        38        37
        17        17        18        39        38
        18        18        19        40        39
        19        19        20        41        40
        20        20        21        42        41
# ... 20 like lines cut
/PART/1
plate
         1         1
/MAT/LAW1/1
steel elastic
             7.8e-06
               210.0                 0.3
/PROP/SHELL/1
shell
#    Ishell    Ismstr     Ish3n    Idrill
         1         0         0         0
#                   hm                  hf                  hr
                0.01                0.01                0.01
#         N   Istrain               Thick
         5         0                 1.0
/GRNOD/NODE/1
clamped edge x=0
         1        22        43
/GRNOD/NODE/2
tip edge x=L
        21        42        63
/BCS/1
clamp all 6 DOFs at x=0
   111 111         0         1
/FUNCT/1
load-factor ramp
                 0.0                 0.0
               100.0               100.0
/CLOAD/1
transverse tip load in Z
         1         Z                             2                                 0.000333333333333
/END
