#RADIOSS STARTER
/BEGIN
IMPLCANT - shell cantilever, implicit statics (pyradioss)
/NODE
         1        0.0000000000        0.0000000000        0.0000000000
         2        5.0000000000        0.0000000000        0.0000000000
         3       10.0000000000        0.0000000000        0.0000000000
         4       15.0000000000        0.0000000000        0.0000000000
         5       20.0000000000        0.0000000000        0.0000000000
         6       25.0000000000        0.0000000000        0.0000000000
         7       30.0000000000        0.0000000000        0.0000000000
         8       35.0000000000        0.0000000000        0.0000000000
         9       40.0000000000        0.0000000000        0.0000000000
        10       45.0000000000        0.0000000000        0.0000000000
        11       50.0000000000        0.0000000000        0.0000000000
        12       55.0000000000        0.0000000000        0.0000000000
        13       60.0000000000        0.0000000000        0.0000000000
        14       65.0000000000        0.0000000000        0.0000000000
        15       70.0000000000        0.0000000000        0.0000000000
        16       75.0000000000        0.0000000000        0.0000000000
        17       80.0000000000        0.0000000000        0.0000000000
        18       85.0000000000        0.0000000000        0.0000000000
        19       90.0000000000        0.0000000000        0.0000000000
        20       95.0000000000        0.0000000000        0.0000000000
# ... 43 like lines cut
/SHELL/1
         1         1         2        23        22
         2         2         3        24        23
         3         3         4        25        24
         4         4         5        26        25
         5         5         6        27        26
         6         6         7        28        27
         7         7         8        29        28
         8         8         9        30        29
         9         9        10        31        30
        10        10        11        32        31
        11        11        12        33        32
        12        12        13        34        33
        13        13        14        35        34
        14        14        15        36        35
        15        15        16        37        36
        16        16        17        38        37
        17        17        18        39        38
        18        18        19        40        39
        19        19        20        41        40
        20        20        21        42        41
# ... 20 like lines cut
/PART/1
plate
         1         1
/MAT/LAW1/1
steel elastic
   7.8e-6
     210.0       0.3
/PROP/SHELL/1
shell
       1.0         5      0.01
/GRNOD/NODE/1
clamped edge x=0
1 22 43
/GRNOD/NODE/2
tip edge x=L
21 42 63
/BCS/1
clamp all 6 DOFs at x=0
       111       111         0         1
/FUNCT/1
load-factor ramp
       0.0       0.0
     100.0     100.0
/CLOAD/1
transverse tip load in Z
         1         Z         2       0.0003333333333333333
/END
