#RADIOSS STARTER
#--------------------------------------------------------------------------------------------------|
#- RADIOSS DECK WRITTEN BY HyperCrash
#HyperCrash 2020 (64 bits) 
#Thu Aug 20 14:24:45 2020
#-
#--------------------------------------------------------------------------------------------------|
##========================================================================================
#-
#- DATE	Wed Jan 15 15:16:27 2020
#--------------------------------------------------------------------------------------------------|
#---1----|----2----|----3----|----4----|----5----|----6----|----7----|----8----|----9----|---10----|
#
#-
#- DATE	Wed Jan 15 19:05:09 2020
#--------------------------------------------------------------------------------------------------|
#---1----|----2----|----3----|----4----|----5----|----6----|----7----|----8----|----9----|---10----|
#
#-
#- DATE	Thu Aug 20 14:24:45 2020
#--------------------------------------------------------------------------------------------------|
#---1----|----2----|----3----|----4----|----5----|----6----|----7----|----8----|----9----|---10----|
/BEGIN
pendulum                                                                        
      2020         0
                   g                  mm                  ms
                   g                  mm                  ms
#---1----|----2----|----3----|----4----|----5----|----6----|----7----|----8----|----9----|---10----|
#-  1. CONTROL CARDS:
#---1----|----2----|----3----|----4----|----5----|----6----|----7----|----8----|----9----|---10----|
#-  2. MATERIALS:
#---1----|----2----|----3----|----4----|----5----|----6----|----7----|----8----|----9----|---10----|
/MAT/ELAST/1
alu
#              RHO_I
               .0027                   0
#                  E                  nu
               70000                 .33
#---1----|----2----|----3----|----4----|----5----|----6----|----7----|----8----|----9----|---10----|
#-  3. NODES:
#---1----|----2----|----3----|----4----|----5----|----6----|----7----|----8----|----9----|---10----|
/NODE
      4672     -1.33226763E-15     291.29550493584     61.894495064156
     10269              11.275      301.2833882201     51.906611779896
     10274             12.5984     309.25601717798     43.933982822018
     10276                 6.3      300.8711929969       52.3188070031
     10277           11.870126     304.80124445651     48.388755543493
     10282      -8.8817842E-16     300.34760310588     52.842396894119
     10371            9.982458     292.81051731234     60.379482687663
     10415     -1.57549674E-15     322.65455931062     57.332524954653
     10416     -1.01506105E-15     295.85747504535     57.332524954653
     10417               8.925     309.25601717798     56.591194205257
     10418          10.7378046     309.42640951222     51.342856013998
     10419         10.24343525     313.22750426412     54.193790807208
     10420          4.95369605     313.22952036697     55.146279056394
     10421         4.428496675     309.28782810895      58.12253905134
     10423     -1.03214903E-15      313.2322991552     56.819810242185
     10425           11.870126     313.71078989946     48.388755543493
     10426                5.25      305.4739628318     55.706343795606
     10427          9.95743805     305.58064384096     54.389084493642
     10429                11.9     313.20923174101     56.809909651233
     10430                 6.3     317.64084135906       52.3188070031
# ... 1590 like lines cut
#---1----|----2----|----3----|----4----|----5----|----6----|----7----|----8----|----9----|---10----|
#-  4. BOUNDARY CONDITIONS:
#---1----|----2----|----3----|----4----|----5----|----6----|----7----|----8----|----9----|---10----|
/BCS/1
Fixing
#  Tra rot   skew_ID  grnod_ID
   111 011         0        33
/GRNOD/NODE/33
NULL
     17146     26675     28283     28284     29892
#---1----|----2----|----3----|----4----|----5----|----6----|----7----|----8----|----9----|---10----|
/BCS/2
BCS
#  Tra rot   skew_ID  grnod_ID
   100 011         0        35
/GRNOD/NODE/35
NULL
      4672     10269     10274     10276     10277     10282     10371     10415     10416     10417
     10418     10419     10420     10421     10423     10425     10426     10427     10429     10430
     10434     10435     10436     10438     10439     10444     10446     10450     10465     10466
     10468     10471     10489     10491     10495     10505     10507     10516     10517     10518
     10530     10536     10584     10585     10587     10623     10624     10656     10657     10658
     10660     10661     10662     10663     10664     10665     10666     10667     10668     10669
     10670     10702     10816     10829     10830     11474     11475     11476     11480     11481
     11482     11483     11484     11485     11487     11489     11490     11491     11493     11494
     11497     11498     11499     11500     11501     11502     11503     11504     11505     11506
     11507     11508     11509     11510     11511     11512     11514     11559     11560     11561
     11562     11563     11564     11565     11566     11567     11568     11569     11596     11597
     11598     11620     11621     11624     11625     11626     11627     11628     11631     11632
     11633     11637     11638     11639     11640     11641     11643     11644     11647     11651
     11654     11655     11657     11658     11659     11660     11663     11664     11665     11667
     11668     11669     11670     11671     11672     11673     11675     11676     11677     11679
     11680     11684     11685     11695     11696     11697     11698     11699     11700     11702
     11704     11705     11706     11709     11710     11719     11720     11731     11736     11741
     11742     11768     11800     11801     11802     11803     11804     11805     11806     11811
     11812     11844     11860     11861     11862     11863     11864     11865     11866     11910
     11911     11913     11914     11915     11918     11919     11920     11921     11922     11923
# ... 141 like lines cut
#---1----|----2----|----3----|----4----|----5----|----6----|----7----|----8----|----9----|---10----|
#-  5. PARTS:
#---1----|----2----|----3----|----4----|----5----|----6----|----7----|----8----|----9----|---10----|
/PART/32
BALL_5
         7         1        32
#---1----|----2----|----3----|----4----|----5----|----6----|----7----|----8----|----9----|---10----|
# BRICK elements of /PART/32/BALL_5:
#---1----|----2----|----3----|----4----|----5----|----6----|----7----|----8----|----9----|---10----|
/BRICK/32
      1818     10516     10435     10624     10416     10468     10426     10276     10282
      1827     10438     10429     10436     10439     10420     10419     10417     10421
      1828     10439     10436     10530     10435     10421     10417     10427     10426
      1829     10530     10623     10624     10435     10427     10269     10276     10426
      1833     10276     10282     10468     10426     10446     10505     10495     10450
      1835     10426     10468     10507     10421     10450     10495     10423     10420
      1836     10427     10417     10419     10418     10426     10421     10420     10450
      1837     10277     10418     10425     10274     10446     10450     10465     10466
      1843     10429     10536     10530     10436     10419     10418     10427     10417
      1845     10420     10423     10471     10430     10450     10495     10489     10465
      1846     10518     10438     10439     10517     10423     10420     10421     10507
      1847     10446     10505     10495     10450     10466     10491     10489     10465
      1848     10829     10830     10429     10438     10430     10434     10419     10420
      1849     10415     10829     10438     10518     10471     10430     10420     10423
      1850     10418     10419     10434     10425     10450     10420     10430     10465
      1853     10816     10444     10702     10536     10425     10274     10277     10418
      1854     10276     10426     10427     10269     10446     10450     10418     10277
      1857     10517     10439     10435     10516     10507     10421     10426     10468
      1858     10536     10702     10623     10530     10418     10277     10269     10427
      1859     10830     10816     10536     10429     10434     10425     10418     10419
# ... 236 like lines cut
#---1----|----2----|----3----|----4----|----5----|----6----|----7----|----8----|----9----|---10----|
/PART/50
TRUSS_5
         5         1        32
#---1----|----2----|----3----|----4----|----5----|----6----|----7----|----8----|----9----|---10----|
# TRUSS elements of /PART/50/TRUSS_5:
#---1----|----2----|----3----|----4----|----5----|----6----|----7----|----8----|----9----|---10----|
/TRUSS/50
         5     17146      4672
#---1----|----2----|----3----|----4----|----5----|----6----|----7----|----8----|----9----|---10----|
/PART/69
BALL_4
         7         1        31
#---1----|----2----|----3----|----4----|----5----|----6----|----7----|----8----|----9----|---10----|
# BRICK elements of /PART/69/BALL_4:
#---1----|----2----|----3----|----4----|----5----|----6----|----7----|----8----|----9----|---10----|
/BRICK/69
      7355     25070     25156     25250     25112     25164     25085     25171     25207
      7356     25257     25231     25215     25282     25237     25241     25224     25262
      7357     25145     25161     25143     25135     25263     25242     25267     25238
      7358     25128     25127     25134     25277     25147     25149     25282     25215
      7359     25268     25260     25223     25243     25228     25271     25281     25236
      7360     25142     25216     25266     25141     25240     25261     25233     25251
      7361     25210     25139     25131     25251     25140     25138     25265     25240
      7362     25249     25196     25248     25132     25241     25231     25257     25237
      7363     25240     25265     25074     25076     25140     25138     25167     25151
      7364     25136     25141     25066     25137     25131     25251     25210     25139
      7365     25073     25081     25142     25133     25074     25076     25240     25265
      7366     25216     25145     25135     25266     25261     25263     25238     25233
      7367     25263     25261     25165     25119     25140     25240     25076     25151
      7368     25248     25136     25137     25132     25257     25131     25139     25237
      7369     25271     25228     25267     25242     25222     25220     25264     25280
      7370     25087     25077     25078     25120     25129     25086     25121     25157
      7371     25125     25122     25123     25082     25120     25119     25165     25087
      7372     25178     25180     25125     25088     25102     25100     25120     25078
      7373     25129     25118     25084     25086     25157     25150     25075     25121
      7374     25127     25124     25163     25073     25149     25155     25118     25074
# ... 236 like lines cut
#---1----|----2----|----3----|----4----|----5----|----6----|----7----|----8----|----9----|---10----|
/PART/73
TRUSS_4
         5         1        31
#---1----|----2----|----3----|----4----|----5----|----6----|----7----|----8----|----9----|---10----|
# TRUSS elements of /PART/73/TRUSS_4:
#---1----|----2----|----3----|----4----|----5----|----6----|----7----|----8----|----9----|---10----|
/TRUSS/73
         7     26675     25541
#---1----|----2----|----3----|----4----|----5----|----6----|----7----|----8----|----9----|---10----|
/PART/74
BALL_3
         7         1        30
#---1----|----2----|----3----|----4----|----5----|----6----|----7----|----8----|----9----|---10----|
# BRICK elements of /PART/74/BALL_3:
#---1----|----2----|----3----|----4----|----5----|----6----|----7----|----8----|----9----|---10----|
/BRICK/74
      7875     26686     26772     26866     26728     26780     26701     26787     26823
      7876     26873     26847     26831     26898     26853     26857     26840     26878
      7877     26761     26777     26759     26751     26879     26858     26883     26854
      7878     26744     26743     26750     26893     26763     26765     26898     26831
      7879     26884     26876     26839     26859     26844     26887     26897     26852
      7880     26758     26832     26882     26757     26856     26877     26849     26867
      7881     26826     26755     26747     26867     26756     26754     26881     26856
      7882     26865     26812     26864     26748     26857     26847     26873     26853
      7883     26856     26881     26690     26692     26756     26754     26783     26767
      7884     26752     26757     26682     26753     26747     26867     26826     26755
      7885     26689     26697     26758     26749     26690     26692     26856     26881
      7886     26832     26761     26751     26882     26877     26879     26854     26849
      7887     26879     26877     26781     26735     26756     26856     26692     26767
      7888     26864     26752     26753     26748     26873     26747     26755     26853
      7889     26887     26844     26883     26858     26838     26836     26880     26896
      7890     26703     26693     26694     26736     26745     26702     26737     26773
      7891     26741     26738     26739     26698     26736     26735     26781     26703
      7892     26794     26796     26741     26704     26718     26716     26736     26694
      7893     26745     26734     26700     26702     26773     26766     26691     26737
      7894     26743     26740     26779     26689     26765     26771     26734     26690
# ... 236 like lines cut
#---1----|----2----|----3----|----4----|----5----|----6----|----7----|----8----|----9----|---10----|
/PART/76
BALL_2
         7         1        29
#---1----|----2----|----3----|----4----|----5----|----6----|----7----|----8----|----9----|---10----|
# BRICK elements of /PART/76/BALL_2:
#---1----|----2----|----3----|----4----|----5----|----6----|----7----|----8----|----9----|---10----|
/BRICK/76
      8131     27582     27653     27560     27521     27629     27529     27663     27659
      8132     27569     27598     27538     27524     27557     27637     27656     27674
      8133     27594     27543     27527     27520     27605     27484     27509     27576
      8134     27679     27671     27646     27549     27677     27505     27535     27550
      8135     27481     27601     27682     27479     27558     27686     27694     27528
      8136     27695     27616     27675     27701     27649     27619     27585     27606
      8137     27604     27493     27698     27597     27507     27531     27577     27551
      8138     27603     27633     27501     27555     27495     27487     27502     27654
      8139     27509     27672     27497     27550     27484     27593     27584     27565
      8140     27610     27600     27607     27642     27665     27501     27691     27613
      8141     27641     27569     27524     27657     27609     27557     27674     27667
      8142     27485     27678     27601     27481     27680     27658     27686     27558
      8143     27507     27694     27522     27513     27593     27528     27548     27584
      8144     27506     27542     27591     27483     27560     27521     27582     27653
      8145     27659     27663     27541     27508     27629     27529     27571     27491
      8146     27683     27503     27684     27562     27658     27678     27485     27680
      8147     27693     27553     27572     27631     27618     27603     27488     27570
      8148     27526     27641     27657     27542     27659     27609     27667     27521
      8149     27489     27622     27570     27488     27594     27520     27576     27605
      8150     27583     27580     27564     27589     27682     27479     27481     27601
# ... 236 like lines cut
#---1----|----2----|----3----|----4----|----5----|----6----|----7----|----8----|----9----|---10----|
/PART/78
TRUSS_3
         5         1        30
#---1----|----2----|----3----|----4----|----5----|----6----|----7----|----8----|----9----|---10----|
# TRUSS elements of /PART/78/TRUSS_3:
#---1----|----2----|----3----|----4----|----5----|----6----|----7----|----8----|----9----|---10----|
/TRUSS/78
         8     28283     27157
#---1----|----2----|----3----|----4----|----5----|----6----|----7----|----8----|----9----|---10----|
/PART/79
TRUSS_2
         5         1        29
#---1----|----2----|----3----|----4----|----5----|----6----|----7----|----8----|----9----|---10----|
# TRUSS elements of /PART/79/TRUSS_2:
#---1----|----2----|----3----|----4----|----5----|----6----|----7----|----8----|----9----|---10----|
/TRUSS/79
         9     28284     28045
#---1----|----2----|----3----|----4----|----5----|----6----|----7----|----8----|----9----|---10----|
/PART/80
BALL_1
         7         1        28
#---1----|----2----|----3----|----4----|----5----|----6----|----7----|----8----|----9----|---10----|
# BRICK elements of /PART/80/BALL_1:
#---1----|----2----|----3----|----4----|----5----|----6----|----7----|----8----|----9----|---10----|
/BRICK/80
      8387     28369     28463     28427     28391     28384     28489     28465     28387
      8388     28455     28491     28315     28464     28303     28368     28288     28483
      8389     28391     28427     28446     28435     28387     28465     28376     28411
      8390     28479     28391     28435     28495     28448     28387     28411     28392
      8391     28437     28486     28365     28475     28508     28506     28373     28410
      8392     28352     28484     28490     28312     28302     28456     28309     28304
      8393     28339     28346     28321     28340     28304     28306     28318     28312
      8394     28455     28464     28295     28399     28303     28483     28420     28419
      8395     28468     28329     28425     28314     28308     28452     28454     28422
      8396     28401     28390     28380     28400     28474     28472     28381     28396
      8397     28358     28345     28423     28450     28470     28319     28440     28451
      8398     28329     28477     28386     28425     28452     28438     28405     28454
      8399     28467     28485     28421     28386     28439     28507     28505     28405
      8400     28442     28476     28370     28354     28416     28294     28350     28336
      8401     28410     28403     28502     28508     28429     28481     28287     28424
      8402     28394     28402     28412     28444     28341     28322     28347     28316
      8403     28495     28496     28445     28357     28392     28430     28361     28299
      8404     28346     28344     28301     28321     28306     28353     28362     28318
      8405     28413     28298     28348     28414     28324     28343     28311     28333
      8406     28294     28416     28379     28333     28415     28441     28349     28324
# ... 236 like lines cut
#---1----|----2----|----3----|----4----|----5----|----6----|----7----|----8----|----9----|---10----|
/PART/84
TRUSS_1
         5         1        28
#---1----|----2----|----3----|----4----|----5----|----6----|----7----|----8----|----9----|---10----|
# TRUSS elements of /PART/84/TRUSS_1:
#---1----|----2----|----3----|----4----|----5----|----6----|----7----|----8----|----9----|---10----|
/TRUSS/84
        10     29892     29052
#---1----|----2----|----3----|----4----|----5----|----6----|----7----|----8----|----9----|---10----|
#-  6. SUBSETS:
#---1----|----2----|----3----|----4----|----5----|----6----|----7----|----8----|----9----|---10----|
/SUBSET/26
mesh
        28        29        30        31        32
#---1----|----2----|----3----|----4----|----5----|----6----|----7----|----8----|----9----|---10----|
/SUBSET/28
BALL 1
#---1----|----2----|----3----|----4----|----5----|----6----|----7----|----8----|----9----|---10----|
/SUBSET/29
BALL 2
#---1----|----2----|----3----|----4----|----5----|----6----|----7----|----8----|----9----|---10----|
/SUBSET/30
BALL 3
#---1----|----2----|----3----|----4----|----5----|----6----|----7----|----8----|----9----|---10----|
/SUBSET/31
BALL 4
#---1----|----2----|----3----|----4----|----5----|----6----|----7----|----8----|----9----|---10----|
/SUBSET/32
BALL 5
#---1----|----2----|----3----|----4----|----5----|----6----|----7----|----8----|----9----|---10----|
#-  7. GEOMETRICAL SETS:
#---1----|----2----|----3----|----4----|----5----|----6----|----7----|----8----|----9----|---10----|
/PROP/TRUSS/5
NULL
#               Area             Gap_ini
                   1                   0
#---1----|----2----|----3----|----4----|----5----|----6----|----7----|----8----|----9----|---10----|
/PROP/SOLID/7
brick
#   Isolid    Ismstr               Icpre  Itetra10     Inpts   Itetra4    Iframe                  dn
        24         2                   0         0         0         0         0                   0
#                q_a                 q_b                   h            LAMBDA_V                MU_V
                   0                   0                   0                   0                   0
#             dt_min   istrain      IHKT
                   0         0         0
#---1----|----2----|----3----|----4----|----5----|----6----|----7----|----8----|----9----|---10----|
#-  8. FUNCTIONS:
#---1----|----2----|----3----|----4----|----5----|----6----|----7----|----8----|----9----|---10----|
/FUNCT/1
gravity
#                  X                   Y
                   0             -.00981
            10000000             -.00981
#---1----|----2----|----3----|----4----|----5----|----6----|----7----|----8----|----9----|---10----|
#-  9. GRAVITIES:
#---1----|----2----|----3----|----4----|----5----|----6----|----7----|----8----|----9----|---10----|
/GRAV/3
NULL
#funct_IDT       DIR   skew_ID sensor_ID  grnod_ID                      Ascale_x            Fscale_Y
         1         Z         0         0        41                             0                   1
/GRNOD/GENE/41
NULL
      4672     29895
#---1----|----2----|----3----|----4----|----5----|----6----|----7----|----8----|----9----|---10----|
#- 10. INTERFACES:
#---1----|----2----|----3----|----4----|----5----|----6----|----7----|----8----|----9----|---10----|
/INTER/TYPE24/1
Self
# Surf_ID1  Surf_ID2      Istf                       Irem_i2                Idel
        39         0         2                             0                   0
# grnd_IDS                         Iedge          Edge_angle           Gap_max_s           Gap_max_m
         0                             0                   0                   0                   0
#              Stmin               Stmax     Igap0     Ipen0            Ipen_max
                   0                   0         0         0                   0
#              Stfac                Fric                                  Tstart               Tstop
                   0                 .05                                       0                   0
#      IBC                        Inacti               ViscS
       000                             5                   0
#    Ifric    Ifiltr               Xfreq             sens_ID                                 fric_ID
         0         0                   0                   0                                       0
/SURF/PART/EXT/39
INTER_group_39_of_PART
        32        69        74        76        80
#---1----|----2----|----3----|----4----|----5----|----6----|----7----|----8----|----9----|---10----|
#- 11. TIME HISTORIES:
#---1----|----2----|----3----|----4----|----5----|----6----|----7----|----8----|----9----|---10----|
/TH/NODE/1
NULL
#     var1      var2      var3      var4      var5      var6      var7      var8      var9     var10
DEF       
#    NODid     Iskew                                           NODname
     11596         0Ball 5                                                                          
     25858         0Ball 4                                                                          
     27474         0Ball 3                                                                          
     27705         0Ball 2                                                                          
     29072         0Ball 1                                                                          
#---1----|----2----|----3----|----4----|----5----|----6----|----7----|----8----|----9----|---10----|
/TH/PART/2
PARTS
#     var1      var2      var3      var4      var5      var6      var7      var8      var9     var10
DEF       HE        IE        KE        KERB      RIE       RKE       RKERB     XCG       XMOM      
XXMOM     YCG       YMOM      YYMOM     ZCG       ZMOM      ZZMOM     
#     Obj1      Obj2      Obj3      Obj4      Obj5      Obj6      Obj7      Obj8      Obj9     Obj10
        50        32        73        69        76        74        80        79        78        84
#---1----|----2----|----3----|----4----|----5----|----6----|----7----|----8----|----9----|---10----|
/TH/INTER/3
Contact
#     var1      var2      var3      var4      var5      var6      var7      var8      var9     var10
DEF       FN        FNX       FNY       FNZ       FT        FTX       FTY       FTZ       SFW       
#     Obj1      Obj2      Obj3      Obj4      Obj5      Obj6      Obj7      Obj8      Obj9     Obj10
         1
#---1----|----2----|----3----|----4----|----5----|----6----|----7----|----8----|----9----|---10----|
/END
#---1----|----2----|----3----|----4----|----5----|----6----|----7----|----8----|----9----|---10----|
