#RADIOSS STARTER
#---1----|----2----|----3----|----4----|----5----|----6----|----7----|----8----|----9----|---10----|
/BEGIN
Cantilever_beam                                                                 
      2021         0
                  Mg                  mm                   s
                  Mg                  mm                   s
#---1----|----2----|----3----|----4----|----5----|----6----|----7----|----8----|----9----|---10----|
#-  1. CONTROL CARDS:
#---1----|----2----|----3----|----4----|----5----|----6----|----7----|----8----|----9----|---10----|
/TITLE
Cantilever_beam
#---1----|----2----|----3----|----4----|----5----|----6----|----7----|----8----|----9----|---10----|
/DEF_SHELL
#   ISHELL    ISMSTR    ITHICK     IPLAS   ISTRAIN                        I_SH3N     IDRIL
         0         0         0         0         0                             0         0
#---1----|----2----|----3----|----4----|----5----|----6----|----7----|----8----|----9----|---10----|
/DEF_SOLID
#  I_SOLID    ISMSTR     ICPRE             ITETRA4  ITETRA10      IMAS    IFRAME
         0         0         0                   0         0         0         0
#---1----|----2----|----3----|----4----|----5----|----6----|----7----|----8----|----9----|---10----|
#-  2. MATERIALS:
#---1----|----2----|----3----|----4----|----5----|----6----|----7----|----8----|----9----|---10----|
/MAT/ELAST/1
Elastic Steel
#              RHO_I
              7.8E-9                   0
#                  E                  nu
              210000                  .3
#---1----|----2----|----3----|----4----|----5----|----6----|----7----|----8----|----9----|---10----|
#-  3. NODES:
#---1----|----2----|----3----|----4----|----5----|----6----|----7----|----8----|----9----|---10----|
/NODE
      1555                   0            1869.998                  10
      1556                   0            1859.998                  10
      1557                   0            1849.998                  10
      1558                   0            1839.998                  10
      1559                   0            1829.998                  10
      1560                   0            1819.998                  10
      1561                   0            1809.998                  10
      1562                   0            1799.998                  10
      1563                   0            1789.998                  10
      1564                   0            1779.998                  10
      1565                   0            1769.998                  10
      1566                   0            1759.998                  10
      1567                   0            1749.998                  10
      1568                   0            1739.998                  10
      1569                   0            1729.998                  10
      1570                   0            1719.998                  10
      1571                   0            1709.998                  10
      1572                   0            1699.998                  10
      1573                   0            1689.998                  10
      1574                   0            1679.998                  10
# ... 96 like lines cut
#---1----|----2----|----3----|----4----|----5----|----6----|----7----|----8----|----9----|---10----|
#-  4. BOUNDARY CONDITIONS:
#---1----|----2----|----3----|----4----|----5----|----6----|----7----|----8----|----9----|---10----|
/BCS/1
XYZ_1
#  Tra rot   skew_ID  grnod_ID
   111 111         0        21
/GRNOD/NODE/21
BCS_1
      1555
#---1----|----2----|----3----|----4----|----5----|----6----|----7----|----8----|----9----|---10----|
/BCS/3
XYZ_2
#  Tra rot   skew_ID  grnod_ID
   111 111         0        22
/GRNOD/NODE/22
BCS_2
      1575
#---1----|----2----|----3----|----4----|----5----|----6----|----7----|----8----|----9----|---10----|
#-  5. PARTS:
#---1----|----2----|----3----|----4----|----5----|----6----|----7----|----8----|----9----|---10----|
/PART/1
Beam
         1         1         0
#---1----|----2----|----3----|----4----|----5----|----6----|----7----|----8----|----9----|---10----|
# BEAM elements of /PART/1/Beam:
#---1----|----2----|----3----|----4----|----5----|----6----|----7----|----8----|----9----|---10----|
/BEAM/1
       912      1555      1556      1616
       913      1556      1557      1617
       914      1557      1558      1618
       915      1558      1559      1619
       916      1559      1560      1620
       917      1560      1561      1621
       918      1561      1562      1622
       919      1562      1563      1623
       920      1563      1564      1624
       921      1564      1565      1625
       922      1565      1566      1626
       923      1566      1567      1627
       924      1567      1568      1628
       925      1568      1569      1629
       926      1569      1570      1630
       927      1570      1571      1631
       928      1571      1572      1632
       929      1572      1573      1633
       930      1573      1574      1634
       931      1575      1576      1635
# ... 37 like lines cut
#---1----|----2----|----3----|----4----|----5----|----6----|----7----|----8----|----9----|---10----|
#-  6. GEOMETRICAL SETS:
#---1----|----2----|----3----|----4----|----5----|----6----|----7----|----8----|----9----|---10----|
/PROP/BEAM/1
BEAM
#             Ismstr
                   0
#                 dm                  df
                   0                   0
#               Area                 Iyy                 Izz                 Ixx
                 100           833.33333           833.33333          1666.66666
# OmegaDof    Ishear
   000 000         0
#---1----|----2----|----3----|----4----|----5----|----6----|----7----|----8----|----9----|---10----|
#-  7. FUNCTIONS:
#---1----|----2----|----3----|----4----|----5----|----6----|----7----|----8----|----9----|---10----|
/FUNCT_SMOOTH/1
Smooth Load Function
#            Ascalex             Fscaley             Ashiftx             Fshifty 
                   0                   0                   0                   0
#                  X                   Y
                   0                   0
                   1                   1
#---1----|----2----|----3----|----4----|----5----|----6----|----7----|----8----|----9----|---10----|
#-  8. CONCENTRATED LOADS:
#---1----|----2----|----3----|----4----|----5----|----6----|----7----|----8----|----9----|---10----|
/CLOAD/1
CLOAD_1
#funct_IDT       Dir   skew_ID sensor_ID  grnod_ID                       Ascalex             Fscaley
         1         Z         0         0         1                            .1               -1000
/GRNOD/NODE/1
CLOAD_1
      1574
/CLOAD/2
CLOAD_2
#funct_IDT       Dir   skew_ID sensor_ID  grnod_ID                       Ascalex             Fscaley
         1         Z         0         0         2                            .1               -1000
/GRNOD/NODE/2
CLOAD_2
      1613
#---1----|----2----|----3----|----4----|----5----|----6----|----7----|----8----|----9----|---10----|
/TH/NODE/1
TH_NODE
#     var1      var2      var3      var4      var5      var6      var7      var8      var9     var10
DEF       
#    NODid     Iskew                                           NODname
      1574         010mm                                                                            
      1613         05mm                                                                             
#---1----|----2----|----3----|----4----|----5----|----6----|----7----|----8----|----9----|---10----|
/END
#---1----|----2----|----3----|----4----|----5----|----6----|----7----|----8----|----9----|---10----|
