$# LS-DYNA Keyword file created by LS-PrePost(R) V4.5.15 - 08Mar2018
$# Created on Apr-23-2018 (14:59:41)
*KEYWORD
*TITLE
$#                                                                         title
LS-DYNA keyword deck by LS-PrePost
*CONTROL_BULK_VISCOSITY
$#      q1        q2      type     btype     
       2.0      0.25         1         0
*CONTROL_ENERGY
$#    hgen      rwen    slnten     rylen     
         2         2         2         2
*CONTROL_SPH
$#    ncbs     boxid        dt      idim    memory      form     start      maxv
         1         11.00000E20         3      1500         0       0.01.00000E15
$#    cont     deriv       ini     ishow     ierod     icont     iavis     isymp
         0         0         0         0         0         0         0       100
*CONTROL_TERMINATION
$#  endtim    endcyc     dtmin    endeng    endmas     nosol     
     0.005         0      0.25       0.01.000000E8         0
*CONTROL_TIMESTEP
$#  dtinit    tssfac      isdo    tslimt     dt2ms      lctm     erode     ms1st
       0.0       0.5         0       0.0       0.0         0         1         0
$#  dt2msf   dt2mslc     imscl    unused    unused     rmscl     
       0.0         0         0                           0.0
*DATABASE_GCEOUT
$#      dt    binary      lcur     ioopt     
5.00000E-5         1         0         1
*DATABASE_GLSTAT
$#      dt    binary      lcur     ioopt     
5.00000E-5         1         0         1
*DATABASE_MATSUM
$#      dt    binary      lcur     ioopt     
5.00000E-5         1         0         1
*DATABASE_RCFORC
$#      dt    binary      lcur     ioopt     
5.00000E-5         1         0         1
*DATABASE_BINARY_D3PLOT
$#      dt      lcdt      beam     npltc    psetid      
5.00000E-5         0         0         0         0
$#   ioopt     
         0
*BOUNDARY_SPC_SET
$#    nsid       cid      dofx      dofy      dofz     dofrx     dofry     dofrz
         2         0         1         1         1         1         1         1
*SET_NODE_LIST_TITLE
NODESET(SPC) 2
$#     sid       da1       da2       da3       da4    solver      
         2       0.0       0.0       0.0       0.0MECH
$#    nid1      nid2      nid3      nid4      nid5      nid6      nid7      nid8
    124092    124095    124097    124098    124099    124101    124104    124106
    124107    124108    124120    124123    124125    124126    124129    124130
    124268    124269    124270    124271    124272    124273    124274    124275
    124276    124277    124278    124279    124280    124281    124282    124283
    124284    124285    124286    124287    124288    124293    124294    124295
    124296    124297    124298    124299    124300    124301    124302    124303
    124304    124305    124306    124307    124308    124309    124310    124311
    124312    124313    124314    124366    124367    124368    124369    124370
    124371    124372    124373    124374    124375    124376    124377    124378
    124379    124380    124381    124382    124383    124384    124385    124386
    124416    124417    124418    124419    124420    124421    124422    124423
    124424    124425    124426    124427    124428    124429    124430    124431
    124432    124433    124434    124435    124436    124441    124442    124443
    124444    124445    124446    124447    124448    124449    124450    124451
    124452    124453    124454    124455    124456    124457    124458    124459
    124460    124461    124462    124514    124515    124516    124517    124518
    124519    124520    124521    124522    124523    124524    124525    124526
    124527    124528    124529    124530    124531    124532    124533    124534
    124799    124800    124801    124802    124803    124804    124805    124806
    124807    124808    124809    124810    124811    124812    124813    124814
$ ... 4 like lines cut
*CONTACT_ERODING_NODES_TO_SURFACE
$#     cid                                                                 title
$#    ssid      msid     sstyp     mstyp    sboxid    mboxid       spr       mpr
         1         4         4         3         0         1         0         0
$#      fs        fd        dc        vc       vdc    penchk        bt        dt
       0.0       0.0       0.0       0.0       0.0         0       0.01.00000E20
$#     sfs       sfm       sst       mst      sfst      sfmt       fsf       vsf
       1.0       1.0       0.0       0.0       1.0       1.0       1.0       1.0
$#    isym    erosop      iadj    
         0         0         0
*SET_NODE_LIST
$#     sid       da1       da2       da3       da4    solver      
         1       0.0       0.0       0.0       0.0MECH
$#    nid1      nid2      nid3      nid4      nid5      nid6      nid7      nid8
    150061    150062    150063    150064    150065    150066    150067    150068
    150069    150070    150071    150072    150073    150074    150075    150076
    150077    150078    150079    150080    150081    150082    150083    150084
    150085    150086    150087    150088    150089    150090    150091    150092
    150093    150094    150095    150096    150097    150098    150099    150100
    150101    150102    150103    150104    150105    150106    150107    150108
    150109    150110    150111    150112    150113    150114    150115    150116
    150117    150118    150119    150120    150121    150122    150123    150124
    150125    150126    150127    150128    150129    150130    150131    150132
    150133    150134    150135    150136    150137    150138    150139    150140
    150141    150142    150143    150144    150145    150146    150147    150148
    150149    150150    150151    150152    150153    150154    150155    150156
    150157    150158    150159    150160    150161    150162    150163    150164
    150165    150166    150167    150168    150169    150170    150171    150172
    150173    150174    150175    150176    150177    150178    150179    150180
    150181    150182    150183    150184    150185    150186    150187    150188
    150189    150190    150191    150192    150193    150194    150195    150196
    150197    150198    150199    150200    150201    150202    150203    150204
    150205    150206    150207    150208    150209    150210    150211    150212
    150213    150214    150215    150216    150217    150218    150219    150220
$ ... 2330 like lines cut
*DEFINE_BOX
$#   boxid       xmn       xmx       ymn       ymx       zmn       zmx   
         1      -0.2       0.3      -0.4       0.4     -0.12      0.12
*CONTACT_ERODING_NODES_TO_SURFACE_ID
$#     cid                                                                 title
         2                                                                      
$#    ssid      msid     sstyp     mstyp    sboxid    mboxid       spr       mpr
         1         5         4         3         0         0         0         0
$#      fs        fd        dc        vc       vdc    penchk        bt        dt
       0.0       0.0       0.0       0.0       0.0         0       0.01.00000E20
$#     sfs       sfm       sst       mst      sfst      sfmt       fsf       vsf
       1.0       1.0       0.0       0.0       1.0       1.0       1.0       1.0
$#    isym    erosop      iadj    
         0         0         0
*PART
$#                                                                         title
SphNode
$#     pid     secid       mid     eosid      hgid      grav    adpopt      tmid
         2         2         1         1         1         0         0         0
*SECTION_SPH_TITLE
bird
$#   secid      cslh      hmin      hmax    sphini     death     start     
         2       1.2       0.2       2.0       0.01.00000E20       0.0
*MAT_NULL_TITLE
bird
$#     mid        ro        pc        mu     terod     cerod        ym        pr
         1     938.0  -0.09974    0.0027       1.1       0.8       0.0       0.0
*EOS_LINEAR_POLYNOMIAL_TITLE
bird
$#   eosid        c0        c1        c2        c3        c4        c5        c6
         1       0.02.250000E9       0.0       0.0       0.0       0.0       0.0
$#      e0        v0  
       0.0       0.0
*HOURGLASS
$#    hgid       ihq        qm       ibq        q1        q2    qb/vdc        qw
         1         2      0.14         0       1.5      0.06       0.1       0.1
*PART
$#                                                                         title
LE_SKin
$#     pid     secid       mid     eosid      hgid      grav    adpopt      tmid
         4         1         2         0         0         0         0         0
*SECTION_SHELL_TITLE
LE_Skin
$#   secid    elform      shrf       nip     propt   qr/irid     icomp     setyp
         1         2       1.0         2       1.0         0         0         1
$#      t1        t2        t3        t4      nloc     marea      idof    edgset
    0.0012    0.0012    0.0012    0.0012       0.0       0.0       0.0         0
*MAT_PIECEWISE_LINEAR_PLASTICITY_TITLE
Plate
$#     mid        ro         e        pr      sigy      etan      fail      tdel
         2    2500.07.20000E10      0.333.200000E81.50000E10     0.022       0.0
$#       c         p      lcss      lcsr        vp  
       0.0       0.0         0         0       0.0
$#    eps1      eps2      eps3      eps4      eps5      eps6      eps7      eps8
       0.0       0.0       0.0       0.0       0.0       0.0       0.0       0.0
$#     es1       es2       es3       es4       es5       es6       es7       es8
       0.0       0.0       0.0       0.0       0.0       0.0       0.0       0.0
*PART
$#                                                                         title
LE_Frame
$#     pid     secid       mid     eosid      hgid      grav    adpopt      tmid
         5         3         2         0         0         0         0         0
*SECTION_SHELL_TITLE
LE_frame
$#   secid    elform      shrf       nip     propt   qr/irid     icomp     setyp
         3         2       1.0         2       1.0         0         0         1
$#      t1        t2        t3        t4      nloc     marea      idof    edgset
     0.003     0.003     0.003     0.003       0.0       0.0       0.0         0
*INITIAL_VELOCITY_NODE
$#     nid        vx        vy        vz       vxr       vyr       vzr      icid
    150061     -38.0     -15.0       0.0       0.0       0.0       0.0         0
    150062     -38.0     -15.0       0.0       0.0       0.0       0.0         0
    150063     -38.0     -15.0       0.0       0.0       0.0       0.0         0
    150064     -38.0     -15.0       0.0       0.0       0.0       0.0         0
    150065     -38.0     -15.0       0.0       0.0       0.0       0.0         0
    150066     -38.0     -15.0       0.0       0.0       0.0       0.0         0
    150067     -38.0     -15.0       0.0       0.0       0.0       0.0         0
    150068     -38.0     -15.0       0.0       0.0       0.0       0.0         0
    150069     -38.0     -15.0       0.0       0.0       0.0       0.0         0
    150070     -38.0     -15.0       0.0       0.0       0.0       0.0         0
    150071     -38.0     -15.0       0.0       0.0       0.0       0.0         0
    150072     -38.0     -15.0       0.0       0.0       0.0       0.0         0
    150073     -38.0     -15.0       0.0       0.0       0.0       0.0         0
    150074     -38.0     -15.0       0.0       0.0       0.0       0.0         0
    150075     -38.0     -15.0       0.0       0.0       0.0       0.0         0
    150076     -38.0     -15.0       0.0       0.0       0.0       0.0         0
    150077     -38.0     -15.0       0.0       0.0       0.0       0.0         0
    150078     -38.0     -15.0       0.0       0.0       0.0       0.0         0
    150079     -38.0     -15.0       0.0       0.0       0.0       0.0         0
    150080     -38.0     -15.0       0.0       0.0       0.0       0.0         0
$ ... 18775 like lines cut
*ELEMENT_SHELL
$
$ -----|-------|-------|-------|-------|-------|-------|-------|-------|
$ 3D shell elements
$ -----|-------|-------|-------|-------|-------|-------|-------|-------|
$
$ dummy PSHELL for shell elements without properties
$PSHELL, 0, 0, 0., 0
$#   eid     pid      n1      n2      n3      n4      n5      n6      n7      n8
  118531       5  124088  124238  125325  124149       0       0       0       0
  118532       5  124149  125325  125326  124150       0       0       0       0
  118533       5  124150  125326  125327  124151       0       0       0       0
  118534       5  124151  125327  125328  124152       0       0       0       0
  118535       5  124152  125328  125329  124153       0       0       0       0
  118536       5  124153  125329  125330  124154       0       0       0       0
  118537       5  124154  125330  125331  124155       0       0       0       0
  118538       5  124155  125331  125332  124156       0       0       0       0
  118539       5  124156  125332  125333  124157       0       0       0       0
  118540       5  124157  125333  125334  124158       0       0       0       0
  118541       5  124158  125334  125335  124159       0       0       0       0
  118542       5  124159  125335  125336  124160       0       0       0       0
  118543       5  124160  125336  125337  124161       0       0       0       0
  118544       5  124161  125337  125338  124162       0       0       0       0
  118545       5  124162  125338  125339  124163       0       0       0       0
  118546       5  124163  125339  125340  124164       0       0       0       0
  118547       5  124164  125340  125341  124165       0       0       0       0
  118548       5  124165  125341  125342  124166       0       0       0       0
  118549       5  124166  125342  125343  124167       0       0       0       0
  118550       5  124167  125343  125344  124168       0       0       0       0
$ ... 7036 like lines cut
*ELEMENT_SPH
$#   nid     pid            mass    
  150061       2    9.683426e-05
  150062       2    9.683426e-05
  150063       2    9.683426e-05
  150064       2    9.683426e-05
  150065       2    9.683426e-05
  150066       2    9.683426e-05
  150067       2    9.683426e-05
  150068       2    9.683426e-05
  150069       2    9.683426e-05
  150070       2    9.683426e-05
  150071       2    9.683426e-05
  150072       2    9.683426e-05
  150073       2    9.683426e-05
  150074       2    9.683426e-05
  150075       2    9.683426e-05
  150076       2    9.683426e-05
  150077       2    9.683426e-05
  150078       2    9.683426e-05
  150079       2    9.683426e-05
  150080       2    9.683426e-05
$ ... 18775 like lines cut
*NODE
$
$ -----|-------|-------|-------|-------|-------|-------|-------|-------|
$ GRIDs defined in local coordinates
$ -----|-------|-------|-------|-------|-------|-------|-------|-------|
$#   nid               x               y               z      tc      rc  
  124088      -0.1905741      -0.4635665       0.1062607       0       0
  124089      -0.1905741      -0.4635665      -0.0735155       0       0
  124090      -0.1905741      -0.4635665       -0.088566       0       0
  124091      -0.1905741      -0.4635665       0.1214339       0       0
  124092      -0.2355742        0.211434        0.121434       0       0
  124093      -0.1905741        0.211434        0.121434       0       0
  124094      -0.1905741       0.4364339        0.121434       0       0
  124095      -0.2355742       0.4364339        0.121434       0       0
  124096      -0.1905741      -0.2385665       0.1214339       0       0
  124097      -0.2355742      -0.2385665       0.1214339       0       0
  124098      -0.2355742      -0.4635665       0.1214339       0       0
  124099      -0.2355742      -0.0135662       0.1214339       0       0
  124100      -0.1905741      -0.0135662       0.1214339       0       0
  124101      -0.2355742        0.211434      -0.0885659       0       0
  124102      -0.1905741        0.211434      -0.0885659       0       0
  124103      -0.1905741       0.4364339      -0.0885659       0       0
  124104      -0.2355742       0.4364339      -0.0885659       0       0
  124105      -0.1905741      -0.2385665       -0.088566       0       0
  124106      -0.2355742      -0.2385665       -0.088566       0       0
  124107      -0.2355742      -0.4635665       -0.088566       0       0
$ ... 25953 like lines cut
*END
