$# LS-DYNA Keyword file created by LS-PrePost(R) V4.5.15 - 08Mar2018
$# Created on Apr-26-2018 (23:09:42)
*KEYWORD
*TITLE
$#                                                                         title
LS-DYNA keyword deck by LS-PrePost
*CONTROL_IMPLICIT_EIGENVALUE
$#    neig    center     lflag    lftend     rflag    rhtend    eigmth    shfscl
        10       0.0         0-1.0000E29         01.00000E29         2       0.0
$#  isolid     ibeam    ishell   itshell    mstres    evdump   mstrscl       
         0         0         0         0         1         0     0.001
*CONTROL_IMPLICIT_GENERAL
$#  imflag       dt0    imform      nsbs       igs     cnstn      form    zero_v
         1       1.0         2         1         2         0         0         0
*CONTROL_IMPLICIT_SOLUTION
$#  nsolvr    ilimit    maxref     dctol     ectol     rctol     lstol    abstol
         1        11        15     0.005      0.051.00000E10       0.91.0000E-10
$#   dnorm    diverg     istif   nlprint    nlnorm   d3itctl     cpchk     
         2         1         1         0         2         0         0
$#  arcctl    arcdir    arclen    arcmth    arcdmp    arcpsi    arcalf    arctim
         0         0       0.0         1         2         0         0         0
$#   lsmtd     lsdir      irad      srad      awgt      sred    
         4         2       0.0       0.0       0.0       0.0
*CONTROL_TERMINATION
$#  endtim    endcyc     dtmin    endeng    endmas     nosol     
       1.0         0      0.25       0.01.000000E8         0
*DATABASE_ELOUT
$#      dt    binary      lcur     ioopt   option1   option2   option3   option4
      10.0         0         0         1         0         0         0         0
*DATABASE_GLSTAT
$#      dt    binary      lcur     ioopt     
      10.0         0         0         1
*DATABASE_JNTFORC
$#      dt    binary      lcur     ioopt     
      10.0         0         0         1
*DATABASE_BINARY_D3PLOT
$#      dt      lcdt      beam     npltc    psetid      
       0.0         0         0        10         0
$#   ioopt     
         0
*DATABASE_FREQUENCY_BINARY_D3FTG
$#  binary      
         1
*DATABASE_FREQUENCY_BINARY_D3PSD
$#  binary      
         1
$#    fmin      fmax     nfreq    fspace    lcfreq      
       0.1       2.0         5         0         0
*DATABASE_FREQUENCY_BINARY_D3RMS
$#  binary      
         1
*BOUNDARY_SPC_SET
$#    nsid       cid      dofx      dofy      dofz     dofrx     dofry     dofrz
         2         0         1         1         1         1         1         1
*SET_NODE_LIST_TITLE
NODESET(SPC) 2
$#     sid       da1       da2       da3       da4    solver      
         2       0.0       0.0       0.0       0.0MECH
$#    nid1      nid2      nid3      nid4      nid5      nid6      nid7      nid8
      5385      5386      5387      5388      5389      5390      5391      5392
      5393      5394      5395      5396      5397      5398      5399      5400
      5401      5402      5412      5413      5414      5415      5416      5417
      5418      5419      5420      5403      5404      5405      5406      5407
      5408      5409      5410      5411         0         0         0         0
*LOAD_GRAVITY_PART
$#     pid       dof        lc     accel      lcdr      stga      stgr    
         1         2         0    0.0098         0         0         0
         2         2         0    0.0098         0         0         0
         3         2         0    0.0098         0         0         0
         4         2         0    0.0098         0         0         0
*PART
$#                                                                         title
MainFrame
$#     pid     secid       mid     eosid      hgid      grav    adpopt      tmid
         1         1         1         0         0         0         0         0
*SECTION_SHELL_TITLE
MainFrame
$#   secid    elform      shrf       nip     propt   qr/irid     icomp     setyp
         1        18       1.0         3       1.0         0         0         1
$#      t1        t2        t3        t4      nloc     marea      idof    edgset
       5.0       5.0       5.0       5.0       0.0       0.0       0.0         0
*MAT_PIECEWISE_LINEAR_PLASTICITY_TITLE
STS304
$#     mid        ro         e        pr      sigy      etan      fail      tdel
         17.85000E-6     209.0      0.29      0.56      12.01.00000E21       0.0
$#       c         p      lcss      lcsr        vp  
       0.0       0.0         0         0       0.0
$#    eps1      eps2      eps3      eps4      eps5      eps6      eps7      eps8
       0.0       0.0       0.0       0.0       0.0       0.0       0.0       0.0
$#     es1       es2       es3       es4       es5       es6       es7       es8
       0.0       0.0       0.0       0.0       0.0       0.0       0.0       0.0
*PART
$#                                                                         title
CrossBeam
$#     pid     secid       mid     eosid      hgid      grav    adpopt      tmid
         2         2         1         0         0         0         0         0
*SECTION_SHELL_TITLE
CrossBeam
$#   secid    elform      shrf       nip     propt   qr/irid     icomp     setyp
         2        18       1.0         3       1.0         0         0         1
$#      t1        t2        t3        t4      nloc     marea      idof    edgset
       4.0       4.0       4.0       4.0       0.0       0.0       0.0         0
*PART
$#                                                                         title
FrontBeam
$#     pid     secid       mid     eosid      hgid      grav    adpopt      tmid
         3         3         1         0         0         0         0         0
*SECTION_SHELL_TITLE
Bracket
$#   secid    elform      shrf       nip     propt   qr/irid     icomp     setyp
         3        18       1.0         3       1.0         0         0         1
$#      t1        t2        t3        t4      nloc     marea      idof    edgset
       2.0       2.0       2.0       2.0       0.0       0.0       0.0         0
*PART
$#                                                                         title
Bracket
$#     pid     secid       mid     eosid      hgid      grav    adpopt      tmid
         4         3         1         0         0         0         0         0
*MAT_ELASTIC
$#     mid        ro         e        pr        da        db  not used        
         27.85000E-6     209.0       0.3       0.0       0.0         0
*MAT_ADD_FATIGUE
$#     mid      lcid     ltype         a         b    sthres    snlimt    sntype
         1         2         0       0.0       0.0       0.0         0         0
*DEFINE_CURVE_TITLE
PSD Acceleration
$#    lcid      sidr       sfa       sfo      offa      offo    dattyp     lcint
         1         0       1.0       2.0       0.0       0.0         0         0
$#                a1                  o1  
                 0.1                0.15
                 0.3                0.29
                 0.5                0.32
                 1.0                0.35
                 1.5                0.24
                 2.0                0.08
*DEFINE_CURVE_TITLE
Steel SN
$#    lcid      sidr       sfa       sfo      offa      offo    dattyp     lcint
         2         0       1.0       1.0       0.0       0.0         0         0
$#                a1                  o1  
                10.0                 0.8
               100.0                 0.8
    1.0000000000e+07                0.35
    9.9999997952e+10                0.35
*SET_NODE_LIST_TITLE
NODESET(SPC) 1
$#     sid       da1       da2       da3       da4    solver      
         1       0.0       0.0       0.0       0.0MECH
$#    nid1      nid2      nid3      nid4      nid5      nid6      nid7      nid8
        25        26        29        31        49        50        53        55
       637       638       639       645       646       647       652       653
       654       659       660       661       721       722       723       729
       730       731       736       737       738       743       744       745
        33        34        37        39        41        42        45        47
       665       666       667       673       674       675       680       681
       682       687       688       689       693       694       695       701
       702       703       708       709       710       715       716       717
*SET_PART_LIST
$#     sid       da1       da2       da3       da4    solver      
         1       0.0       0.0       0.0       0.0MECH
$#    pid1      pid2      pid3      pid4      pid5      pid6      pid7      pid8
         1         2         3         4         0         0         0         0
*ELEMENT_SHELL
$
$ -----|-------|-------|-------|-------|-------|-------|-------|-------|
$ 3D shell elements
$ -----|-------|-------|-------|-------|-------|-------|-------|-------|
$
$ dummy PSHELL for shell elements without properties
$PSHELL, 0, 0, 0., 0
$#   eid     pid      n1      n2      n3      n4      n5      n6      n7      n8
       1       2       1     281    4545     412       0       0       0       0
       2       2     281     282    4546    4545       0       0       0       0
       3       2     282     283    4547    4546       0       0       0       0
       4       2     283       2     284    4547       0       0       0       0
       5       2     412    4545    4548     411       0       0       0       0
       6       2    4545    4546    4549    4548       0       0       0       0
       7       2    4546    4547    4550    4549       0       0       0       0
       8       2    4547     284     285    4550       0       0       0       0
       9       2     411    4548    4551     410       0       0       0       0
      10       2    4548    4549    4552    4551       0       0       0       0
      11       2    4549    4550    4553    4552       0       0       0       0
      12       2    4550     285     286    4553       0       0       0       0
      13       2     410    4551    4554     409       0       0       0       0
      14       2    4551    4552    4555    4554       0       0       0       0
      15       2    4552    4553    4556    4555       0       0       0       0
      16       2    4553     286     287    4556       0       0       0       0
      17       2     409    4554    4557     408       0       0       0       0
      18       2    4554    4555    4558    4557       0       0       0       0
      19       2    4555    4556    4559    4558       0       0       0       0
      20       2    4556     287     288    4559       0       0       0       0
$ ... 17960 like lines cut
*ELEMENT_MASS
$#   eid     nid            mass     pid   
       1   11479           100.0       0
       2   11475           100.0       0
       3    9810           100.0       0
       4    9806           100.0       0
*NODE
$#   nid               x               y               z      tc      rc  
       1       -701.8491        58.69205       -330.3223       0       0
       2       -701.8491        99.39285       -330.3223       0       0
       3       -701.8491        99.39285        309.6778       0       0
       4       -701.8491        58.69205        309.6778       0       0
       5       -662.4581        99.39285       -330.3223       0       0
       6       -662.4581        99.39285        309.6778       0       0
       7       -662.4581        58.69205       -330.3223       0       0
       8       -662.4581        58.69205        309.6778       0       0
       9       -80.51701        49.04185        372.1778       0       0
      10       -80.51701        49.04185        327.1777       0       0
      11       -80.51701        29.04185        327.1777       0       0
      12       -80.51701        29.04185        372.1778       0       0
      13        -140.517        49.04185        327.1777       0       0
      14        -140.517        29.04185        327.1777       0       0
      15        -140.517        49.04185        372.1778       0       0
      16        -140.517        29.04185        372.1778       0       0
      17       -80.51701        49.04185       -347.8223       0       0
      18       -80.51701        49.04185       -392.8223       0       0
      19       -80.51701        29.04185       -392.8223       0       0
      20       -80.51701        29.04185       -347.8223       0       0
$ ... 17960 like lines cut
*FREQUENCY_DOMAIN_RANDOM_VIBRATION_FATIGUE
$#   mdmin     mdmax     fnmin     fnmax    restrt      mftg    restrm     inftg
         1        10       0.0   90000.0         0         1         0         0
$#   dampf     lcdam     lctyp    dmpmas    dmpstf    dmptyp      
      0.03         0         0       0.0       0.0         0
$#  vaflag    method      unit      umlt     vapsd     varms     napsd      nftg
         1         1         0       0.0         1         1         1      -999
$#   ldtyp   ipanelu   ipanelv    temper    texpos    ldflag    sntype     strsf
         0         0         0       0.01.440000E7         0         0       1.0
$#     sid     stype       dof     ldpsd     ldvel     ldflw     ldspn       cid
         0         0         2         1         0         0         0         0
*END
