$# LS-DYNA Keyword file created by LS-PrePost(R) V4.5.15 - 08Mar2018
$# Created on Jul-04-2018 (13:41:02)
$ ===============================================================
$ Analysis file for Chapter 16. Spot welded door side pole impact 
$ Model units:  tons,mm,N,sec
$ ===============================================================
*KEYWORD
*TITLE
$#                                                                         title
LS-DYNA keyword deck by LS-PrePost
*CONTROL_CONTACT
$#  slsfac    rwpnal    islchk    shlthk    penopt    thkchg     orien    enmass
       0.1       0.0         1         0         1         0         1         0
$#  usrstr    usrfrc     nsbcs    interm     xpene     ssthk      ecdt   tiedprj
         0         0         0         0       4.0         0         0         0
$#   sfric     dfric       edc       vfc        th     th_sf    pen_sf      
       0.0       0.0       0.0       0.0       0.0       0.0       0.0
$#  ignore    frceng   skiprwg    outseg   spotstp   spotdel   spothin       
         0         0         0         1         0         0       0.0
*CONTROL_TERMINATION
$#  endtim    endcyc     dtmin    endeng    endmas     nosol     
      0.05         0       0.0       0.01.000000E8         0
*CONTROL_TIMESTEP
$#  dtinit    tssfac      isdo    tslimt     dt2ms      lctm     erode     ms1st
       0.0       0.9         0       0.03.00000E-6         0         0         0
$#  dt2msf   dt2mslc     imscl    unused    unused     rmscl     
       0.0         0         0                           0.0
*DATABASE_GLSTAT
$#      dt    binary      lcur     ioopt     
5.00000E-4         0         0         1
*DATABASE_MATSUM
$#      dt    binary      lcur     ioopt     
5.00000E-4         0         0         1
*DATABASE_RCFORC
$#      dt    binary      lcur     ioopt     
5.00000E-4         0         0         1
*DATABASE_RWFORC
$#      dt    binary      lcur     ioopt     
5.00000E-4         0         0         1
*DATABASE_SWFORC
$#      dt    binary      lcur     ioopt     
5.00000E-4         0         0         1
*DATABASE_BINARY_D3PLOT
$#      dt      lcdt      beam     npltc    psetid      
       0.0         0         0        40         0
$#   ioopt     
         0
*BOUNDARY_SPC_SET
$#    nsid       cid      dofx      dofy      dofz     dofrx     dofry     dofrz
         1         0         1         1         1         1         1         1
*SET_NODE_LIST_TITLE
NODESET(SPC) 1
$#     sid       da1       da2       da3       da4    solver      
         1       0.0       0.0       0.0       0.0MECH
$#    nid1      nid2      nid3      nid4      nid5      nid6      nid7      nid8
   2992422   2992423   2992424   2992425   2992426   2992427   2992428   2992429
   2992430   2992431   2992432   2992433   2992434   2992435   2992436   2992437
   2992438   2992439   2992440   2992441   2992442   2992443   2992444   2992445
   2992446   2992447   2992448   2992449   2992450   2992451   2992452   2992453
   2992454   2992455   2992456   2992457   2992458   2992459   2992460   2992461
   2992462   2992463   2992464   2992465   2992466   2992467   2992468   2992469
   2992470   2992471  13047766  13047771  13047775  13047779  13047783  13047787
  13047791  13047795  13047799  13047803  13047807  13047811  13047815  13047819
  13047823  13047827  13047831  13047835  13047839  13047843  13047847  13047851
  13047855  13047859  13047863  13047867  13047871  13047875  13047879  13047883
  13047887  13047891  13047895  13047899  13047903  13047907  13047911  13047915
  13047919  13047923  13047927  13047931  13047935  13047939  13047943  13047947
  13047951  13047955  13047959  13047963   2992672   2992673   2992674   2992675
   2992676   2992677   2992678   2992679   2992680   2992681   2992682   2992683
   2992684   2992685   2992686   2992687   2992688   2992689   2992690   2992691
   2992692   2992693   2992694   2992695   2992696   2992697   2992698   2992699
   2992700   2992701   2992702   2992703   2992704   2992705   2992706   2992707
   2992708   2992709   2992710   2992711   2992712   2992713   2992714   2992715
   2992716   2992717   2992718   2992719   2992720   2992721  13048417  13048421
  13048424  13048427  13048430  13048433  13048436  13048439  13048442  13048445
$ ... 5 like lines cut
*CONTACT_SPOTWELD
$#     cid                                                                 title
$#    ssid      msid     sstyp     mstyp    sboxid    mboxid       spr       mpr
        11         2         3         2         0         0         0         2
$#      fs        fd        dc        vc       vdc    penchk        bt        dt
       0.0       0.0       0.0       0.0       0.0         0       0.01.00000E20
$#     sfs       sfm       sst       mst      sfst      sfmt       fsf       vsf
       1.0       1.0       0.0       0.0       1.0       1.0       1.0       1.0
*SET_PART_LIST_TITLE
Weldset2
$#     sid       da1       da2       da3       da4    solver      
         2       0.0       0.0       0.0       0.0MECH
$#    pid1      pid2      pid3      pid4      pid5      pid6      pid7      pid8
         1         2         0         0         0         0         0         0
*CONTACT_SPOTWELD_ID
$#     cid                                                                 title
         3                                                                      
$#    ssid      msid     sstyp     mstyp    sboxid    mboxid       spr       mpr
        13         3         3         2         0         0         0         2
$#      fs        fd        dc        vc       vdc    penchk        bt        dt
       0.0       0.0       0.0       0.0       0.0         0       0.01.00000E20
$#     sfs       sfm       sst       mst      sfst      sfmt       fsf       vsf
       1.0       1.0       0.0       0.0       1.0       1.0       1.0       1.0
*SET_PART_LIST_TITLE
Weldset3
$#     sid       da1       da2       da3       da4    solver      
         3       0.0       0.0       0.0       0.0MECH
$#    pid1      pid2      pid3      pid4      pid5      pid6      pid7      pid8
         4         2         3         0         0         0         0         0
*CONTACT_SPOTWELD_ID
$#     cid                                                                 title
         4                                                                      
$#    ssid      msid     sstyp     mstyp    sboxid    mboxid       spr       mpr
        12         3         3         2         0         0         0         2
$#      fs        fd        dc        vc       vdc    penchk        bt        dt
       0.0       0.0       0.0       0.0       0.0         0       0.01.00000E20
$#     sfs       sfm       sst       mst      sfst      sfmt       fsf       vsf
       1.0       1.0       0.0       0.0       1.0       1.0       1.0       1.0
*CONTACT_SPOTWELD_ID
$#     cid                                                                 title
         5                                                                      
$#    ssid      msid     sstyp     mstyp    sboxid    mboxid       spr       mpr
        14         1         3         2         0         0         0         2
$#      fs        fd        dc        vc       vdc    penchk        bt        dt
       0.0       0.0       0.0       0.0       0.0         0       0.01.00000E20
$#     sfs       sfm       sst       mst      sfst      sfmt       fsf       vsf
       1.0       1.0       0.0       0.0       1.0       1.0       1.0       1.0
*SET_PART_LIST_TITLE
Weldset1
$#     sid       da1       da2       da3       da4    solver      
         1       0.0       0.0       0.0       0.0MECH
$#    pid1      pid2      pid3      pid4      pid5      pid6      pid7      pid8
         1         3         0         0         0         0         0         0
*CONTACT_AUTOMATIC_SURFACE_TO_SURFACE_ID
$#     cid                                                                 title
         6                                                                      
$#    ssid      msid     sstyp     mstyp    sboxid    mboxid       spr       mpr
         0         0         0         0         0         0         0         0
$#      fs        fd        dc        vc       vdc    penchk        bt        dt
       0.0       0.0       0.0       0.0       0.0         0       0.01.00000E20
$#     sfs       sfm       sst       mst      sfst      sfmt       fsf       vsf
       1.0       1.0       0.0       0.0       1.0       1.0       1.0       1.0
*CONTACT_SPOTWELD_ID
$#     cid                                                                 title
         7                                                                      
$#    ssid      msid     sstyp     mstyp    sboxid    mboxid       spr       mpr
        15         4         3         2         0         0         0         2
$#      fs        fd        dc        vc       vdc    penchk        bt        dt
       0.0       0.0       0.0       0.0       0.0         0       0.01.00000E20
$#     sfs       sfm       sst       mst      sfst      sfmt       fsf       vsf
       1.0       1.0       0.0       0.0       1.0       1.0       1.0       1.0
*SET_PART_LIST_TITLE
Weldset4
$#     sid       da1       da2       da3       da4    solver      
         4       0.0       0.0       0.0       0.0MECH
$#    pid1      pid2      pid3      pid4      pid5      pid6      pid7      pid8
         5         1         0         0         0         0         0         0
*PART
$#                                                                         title
Douter
$#     pid     secid       mid     eosid      hgid      grav    adpopt      tmid
         1        10        10         0         0         0         0         0
*SECTION_SHELL
$#   secid    elform      shrf       nip     propt   qr/irid     icomp     setyp
        10         2       0.0         3       1.0         0         0         1
$#      t1        t2        t3        t4      nloc     marea      idof    edgset
       1.5       1.5       1.5       1.5       0.0       0.0       0.0         0
*MAT_PIECEWISE_LINEAR_PLASTICITY
$#     mid        ro         e        pr      sigy      etan      fail      tdel
        107.89000E-9  210000.0       0.3     270.0     500.01.00000E21       0.0
$#       c         p      lcss      lcsr        vp  
       0.0       0.0         0         0       0.0
$#    eps1      eps2      eps3      eps4      eps5      eps6      eps7      eps8
       0.0       0.0       0.0       0.0       0.0       0.0       0.0       0.0
$#     es1       es2       es3       es4       es5       es6       es7       es8
       0.0       0.0       0.0       0.0       0.0       0.0       0.0       0.0
*PART
$#                                                                         title
InUp
$#     pid     secid       mid     eosid      hgid      grav    adpopt      tmid
         2        10        10         0         0         0         0         0
*PART
$#                                                                         title
InLo
$#     pid     secid       mid     eosid      hgid      grav    adpopt      tmid
         3        10        10         0         0         0         0         0
*PART
$#                                                                         title
CBeamLo
$#     pid     secid       mid     eosid      hgid      grav    adpopt      tmid
         4        10        10         0         0         0         0         0
*PART
$#                                                                         title
CBeamUp
$#     pid     secid       mid     eosid      hgid      grav    adpopt      tmid
         5        11        10         0         0         0         0         0
*SECTION_SHELL
$#   secid    elform      shrf       nip     propt   qr/irid     icomp     setyp
        11         2       0.0         3       1.0         0         0         1
$#      t1        t2        t3        t4      nloc     marea      idof    edgset
       3.0       3.0       3.0       3.0       0.0       0.0       0.0         0
*PART
$#                                                                         title
Pole
$#     pid     secid       mid     eosid      hgid      grav    adpopt      tmid
        10        10         1         0         0         0         0         0
*MAT_RIGID
$#     mid        ro         e        pr         n    couple         m     alias
         17.80000E-9   21500.0       0.3       0.0       0.0       0.0          
$#     cmo      con1      con2    
       0.0         0         0
$#lco or a1        a2        a3        v1        v2        v3  
       0.0       0.0       0.0       0.0       0.0       0.0
*PART
$#                                                                         title
SW UP
$#     pid     secid       mid     eosid      hgid      grav    adpopt      tmid
        11         1         5         0         0         0         0         0
*SECTION_BEAM_TITLE
weld
$#   secid    elform      shrf   qr/irid       cst     scoor       nsm   
         1         9       1.0         1         1       0.0       0.0
$#     ts1       ts2       tt1       tt2     print     
       2.0       2.0       0.0       0.0       0.0
*MAT_SPOTWELD
$#     mid        ro         e        pr      sigy        eh        dt     tfail
         57.80000E-9  210000.0       0.3     270.0     500.0       0.0       0.0
$#   efail       nrr       nrs       nrt       mrr       mss       mtt        nf
       0.0       0.0       0.0       0.0       0.0       0.0       0.0       0.0
*PART
$#                                                                         title
sw 2 4
$#     pid     secid       mid     eosid      hgid      grav    adpopt      tmid
        12         1         5         0         0         0         0         0
*PART
$#                                                                         title
sw 3 4
$#     pid     secid       mid     eosid      hgid      grav    adpopt      tmid
        13         1         5         0         0         0         0         0
*PART
$#                                                                         title
sw 1 3
$#     pid     secid       mid     eosid      hgid      grav    adpopt      tmid
        14         1         5         0         0         0         0         0
*PART
$#                                                                         title
sw 1 5
$#     pid     secid       mid     eosid      hgid      grav    adpopt      tmid
        15         1         5         0         0         0         0         0
*INITIAL_VELOCITY_NODE
$#     nid        vx        vy        vz       vxr       vyr       vzr      icid
   2970173       0.0    6000.0       0.0       0.0       0.0       0.0         0
   2970174       0.0    6000.0       0.0       0.0       0.0       0.0         0
   2970243       0.0    6000.0       0.0       0.0       0.0       0.0         0
   2970244       0.0    6000.0       0.0       0.0       0.0       0.0         0
   2970245       0.0    6000.0       0.0       0.0       0.0       0.0         0
   2970246       0.0    6000.0       0.0       0.0       0.0       0.0         0
   2970247       0.0    6000.0       0.0       0.0       0.0       0.0         0
   2970248       0.0    6000.0       0.0       0.0       0.0       0.0         0
   2970249       0.0    6000.0       0.0       0.0       0.0       0.0         0
   2970250       0.0    6000.0       0.0       0.0       0.0       0.0         0
   2970251       0.0    6000.0       0.0       0.0       0.0       0.0         0
   2970252       0.0    6000.0       0.0       0.0       0.0       0.0         0
   2970253       0.0    6000.0       0.0       0.0       0.0       0.0         0
   2970254       0.0    6000.0       0.0       0.0       0.0       0.0         0
   2970255       0.0    6000.0       0.0       0.0       0.0       0.0         0
   2970256       0.0    6000.0       0.0       0.0       0.0       0.0         0
   2970257       0.0    6000.0       0.0       0.0       0.0       0.0         0
   2970258       0.0    6000.0       0.0       0.0       0.0       0.0         0
   2970259       0.0    6000.0       0.0       0.0       0.0       0.0         0
   2970260       0.0    6000.0       0.0       0.0       0.0       0.0         0
$ ... 23449 like lines cut
*SET_NODE_LIST_TITLE
NODESET(CNRB)
$#     sid       da1       da2       da3       da4    solver      
         2       0.0       0.0       0.0       0.0MECH
$#    nid1      nid2      nid3      nid4      nid5      nid6      nid7      nid8
  13048682   6975616   6975615   6975614   6975613   6975521   6975520   6975519
   6975518   6975517   6975516   6975515   6975514   6975513   6975512   6975618
   6975617         0         0         0         0         0         0         0
*SET_NODE_LIST_TITLE
NODESET(CNRB)
$#     sid       da1       da2       da3       da4    solver      
         3       0.0       0.0       0.0       0.0MECH
$#    nid1      nid2      nid3      nid4      nid5      nid6      nid7      nid8
  13048683   2970859   2970856   2970857   2970858   2970853   2970854   2970855
   2970844   2970845   2970846   2970847   2970848   2970849   2970850   2970851
   2970852   2970865   2970866   2970863   2970864   2970861   2970862   2970860
   2970767   2970768   2970769   2970770   2970771   2973261   2973262   2973265
   2973266   2973267   2973268   2973269   2973263   2973264   2973270   2973271
   2973272   2973273   2973274   2973275   2973276   2973277   2973278   2973279
   2973280   2973281   2973282   2973283   2974526   2974527   2970842   2970843
*CONSTRAINED_NODAL_RIGID_BODY
$#     pid       cid      nsid     pnode      iprt    drflag    rrflag      
        16         0         2  13048682         0         0         0
*CONSTRAINED_NODAL_RIGID_BODY
$#     pid       cid      nsid     pnode      iprt    drflag    rrflag      
        17         0         3  13048683         0         0         0
*ELEMENT_SHELL
$#   eid     pid      n1      n2      n3      n4      n5      n6      n7      n8
 2965882       1 2970300 2970298 2970297 2970297       0       0       0       0
 2965883       1 2970299 2970298 2970300 2970300       0       0       0       0
 2965884       1 2970729 2970727 2970728 2970728       0       0       0       0
 2965885       1 2970698 2970739 2970697 2970697       0       0       0       0
 2965886       1 2970316 2971599 2971574 2971574       0       0       0       0
 2965887       1 2971608 2971596 2971599 2971599       0       0       0       0
 2965888       1 2971626 2971620 2971612 2971612       0       0       0       0
 2965889       1 2971642 2971622 2971640 2971640       0       0       0       0
 2965890       1 2971643 2971627 2971637 2971637       0       0       0       0
 2965891       1 2971707 2971699 2971696 2971696       0       0       0       0
 2965892       1 2971796 2971798 2971794 2971794       0       0       0       0
 2965893       1 2971791 2971790 2971802 2971802       0       0       0       0
 2965894       1 2971807 2971808 2971802 2971802       0       0       0       0
 2965895       1 2971769 2971812 2971770 2971770       0       0       0       0
 2965896       1 2971820 2971813 2971819 2971819       0       0       0       0
 2965897       1 2971830 2971815 2971809 2971809       0       0       0       0
 2965898       1 2971838 2971837 2971845 2971845       0       0       0       0
 2965899       1 2971844 2971836 2971843 2971843       0       0       0       0
 2965900       1 2971864 2971855 2971863 2971863       0       0       0       0
 2965901       1 2971869 2971859 2971868 2971868       0       0       0       0
$ ... 23762 like lines cut
*ELEMENT_BEAM
$#   eid     pid      n1      n2      n3     rt1     rr1     rt2     rr2   local
       1      111304856613048567       0       0       0       0       0       0
       2      111304856813048569       0       0       0       0       0       0
       3      111304857013048571       0       0       0       0       0       0
       4      111304857213048573       0       0       0       0       0       0
       5      111304857413048575       0       0       0       0       0       0
       6      111304857613048577       0       0       0       0       0       0
       7      111304857813048579       0       0       0       0       0       0
       8      111304858013048581       0       0       0       0       0       0
       9      111304858213048583       0       0       0       0       0       0
      10      111304858413048585       0       0       0       0       0       0
      11      111304858613048587       0       0       0       0       0       0
      12      111304858813048589       0       0       0       0       0       0
      13      111304859013048591       0       0       0       0       0       0
      14      111304859213048593       0       0       0       0       0       0
      15      111304859413048595       0       0       0       0       0       0
      16      111304859613048597       0       0       0       0       0       0
      17      111304859813048599       0       0       0       0       0       0
      18      111304860013048601       0       0       0       0       0       0
      19      121304860213048603       0       0       0       0       0       0
      20      121304860413048605       0       0       0       0       0       0
$ ... 38 like lines cut
*NODE
$#   nid               x               y               z      tc      rc  
 2970173       -1701.666        844.1875        1429.844       0       0
 2970174       -1719.794        840.4766        1431.521       0       0
 2970243       -1635.075        867.3203        1326.121       0       0
 2970244       -1628.739        870.3438        1316.709       0       0
 2970245        -1624.26        873.2109        1306.251       0       0
 2970246       -1622.594        876.0469        1295.004       0       0
 2970247       -1623.787        878.9141         1283.68       0       0
 2970248       -1626.706        881.8672        1272.665       0       0
 2970249       -1631.706        884.8047        1262.454       0       0
 2970250       -1638.845        887.4141        1253.476       0       0
 2970251       -1646.939        890.3281        1245.449       0       0
 2970252       -1656.798        892.5938        1239.599       0       0
 2970253       -1667.244        894.5313        1234.771       0       0
 2970254       -1678.519        895.6875         1231.95       0       0
 2970255       -1690.079        896.3516        1230.453       0       0
 2970256       -1701.791        896.2656        1230.243       0       0
 2970257       -1713.502        896.1953        1230.646       0       0
 2970258       -1725.382        896.3672        1231.042       0       0
 2970259       -1736.854        895.5078        1231.575       0       0
 2970260       -1750.274        893.7652         1232.56       0       0
$ ... 24607 like lines cut
*END
