$# LS-DYNA Keyword file created by LS-PrePost(R) V4.5.15 - 08Mar2018
$# Created on Jul-02-2018 (16:04:00)
*KEYWORD
*TITLE
$#                                                                         title
LS-DYNA keyword deck by LS-PrePost
*CONTROL_TERMINATION
$#  endtim    endcyc     dtmin    endeng    endmas     nosol     
       0.1         0       0.0       0.01.000000E8         0
*DATABASE_GLSTAT
$#      dt    binary      lcur     ioopt     
      0.01         0         0         1
*DATABASE_MATSUM
$#      dt    binary      lcur     ioopt     
      0.01         0         0         1
*DATABASE_SWFORC
$#      dt    binary      lcur     ioopt     
      0.01         0         0         1
*DATABASE_BINARY_D3PLOT
$#      dt      lcdt      beam     npltc    psetid      
       0.0         0         0        20         0
$#   ioopt     
         0
*BOUNDARY_PRESCRIBED_MOTION_SET
$#    nsid       dof       vad      lcid        sf       vid     death     birth
         2         2         2         1       1.0         01.00000E28       0.0
*BOUNDARY_SPC_SET
$#    nsid       cid      dofx      dofy      dofz     dofrx     dofry     dofrz
         1         0         1         1         1         1         1         1
*SET_NODE_LIST_TITLE
NODESET(SPC) 1
$#     sid       da1       da2       da3       da4    solver      
         1       0.0       0.0       0.0       0.0MECH
$#    nid1      nid2      nid3      nid4      nid5      nid6      nid7      nid8
      1046      1047      1053      1054      1154      1155      1156      1157
      1158      1159      1160      1161      1162      1163      1164      1223
      1224      1225      1226      1227      1228      1229      1230      1231
      1232      1233      1249      1250      1251      1252      1253      1254
      1255      1256      1257      1258      1259      1260      1267      1268
      1269      1270      1271      1272      1273      1274      1275      1276
      1277      1278         0         0         0         0         0         0
*CONTACT_SPOTWELD_ID
$#     cid                                                                 title
         1                                                                      
$#    ssid      msid     sstyp     mstyp    sboxid    mboxid       spr       mpr
         3         1         3         2         0         0         0         0
$#      fs        fd        dc        vc       vdc    penchk        bt        dt
       0.0       0.0       0.0       0.0       0.0         0       0.01.00000E20
$#     sfs       sfm       sst       mst      sfst      sfmt       fsf       vsf
       1.0       1.0       0.0       0.0       1.0       1.0       1.0       1.0
*SET_PART_LIST
$#     sid       da1       da2       da3       da4    solver      
         1       0.0       0.0       0.0       0.0MECH
$#    pid1      pid2      pid3      pid4      pid5      pid6      pid7      pid8
         1         2         0         0         0         0         0         0
*PART
$#                                                                         title
UpFixture
$#     pid     secid       mid     eosid      hgid      grav    adpopt      tmid
         1         1         1         0         0         0         0         0
*SECTION_SHELL_TITLE
Fixture
$#   secid    elform      shrf       nip     propt   qr/irid     icomp     setyp
         1         2       1.0         2       1.0         0         0         1
$#      t1        t2        t3        t4      nloc     marea      idof    edgset
     0.002     0.002     0.002     0.002       0.0       0.0       0.0         0
*MAT_ELASTIC_TITLE
Fixture
$#     mid        ro         e        pr        da        db  not used        
         1    7850.02.10000E11      0.29       0.0       0.0         0
*PART
$#                                                                         title
BottomFix
$#     pid     secid       mid     eosid      hgid      grav    adpopt      tmid
         2         1         1         0         0         0         0         0
*PART
$#                                                                         title
sw 1 2
$#     pid     secid       mid     eosid      hgid      grav    adpopt      tmid
         3         2         2         0         0         0         0         0
*SECTION_BEAM_TITLE
Spotweld
$#   secid    elform      shrf   qr/irid       cst     scoor       nsm   
         2         9       1.0         2         1       0.0       0.0
$#     ts1       ts2       tt1       tt2     print     
     0.003     0.003       0.0       0.0       0.0
*MAT_SPOTWELD_TITLE
Spotweld
$#     mid        ro         e        pr      sigy        eh        dt     tfail
         2    7850.02.10000E11       0.33.500000E85.000000E8       0.0       0.0
$#   efail       nrr       nrs       nrt       mrr       mss       mtt        nf
       0.0       0.0       0.0       0.0       0.0       0.0       0.0       0.0
*DEFINE_CURVE_TITLE
Motion
$#    lcid      sidr       sfa       sfo      offa      offo    dattyp     lcint
         1         0       1.0       1.0       0.0       0.0         0         0
$#                a1                  o1  
                 0.0                 0.0
                 0.1                0.01
*SET_NODE_LIST_TITLE
UpMotion
$#     sid       da1       da2       da3       da4    solver      
         2       0.0       0.0       0.0       0.0MECH
$#    nid1      nid2      nid3      nid4      nid5      nid6      nid7      nid8
        17        18        24        25       125       126       127       128
       129       130       131       132       133       134       135       194
       195       196       197       198       199       200       201       202
       203       204       220       221       222       223       224       225
       226       227       228       229       230       231       238       239
       240       241       242       243       244       245       246       247
       248       249         0         0         0         0         0         0
*ELEMENT_SHELL
$
$ -----|-------|-------|-------|-------|-------|-------|-------|-------|
$ 3D shell elements
$ -----|-------|-------|-------|-------|-------|-------|-------|-------|
$
$ dummy PSHELL for shell elements without properties
$PSHELL, 0, 0, 0., 0
$#   eid     pid      n1      n2      n3      n4      n5      n6      n7      n8
       1       1       1      26     250      37       0       0       0       0
       2       1      26       2      27     250       0       0       0       0
       3       1      37     250     251      36       0       0       0       0
       4       1     250      27      28     251       0       0       0       0
       5       1      36     251     252      35       0       0       0       0
       6       1     251      28      29     252       0       0       0       0
       7       1      35     252     253      34       0       0       0       0
       8       1     252      29      30     253       0       0       0       0
       9       1      34     253     254      33       0       0       0       0
      10       1     253      30      31     254       0       0       0       0
      11       1      33     254      32       4       0       0       0       0
      12       1     254      31       3      32       0       0       0       0
      13       1       5      38     255      49       0       0       0       0
      14       1      38       2      39     255       0       0       0       0
      15       1      49     255     256      48       0       0       0       0
      16       1     255      39      40     256       0       0       0       0
      17       1      48     256     257      47       0       0       0       0
      18       1     256      40      41     257       0       0       0       0
      19       1      47     257     258      46       0       0       0       0
      20       1     257      41      42     258       0       0       0       0
$ ... 2000 like lines cut
*ELEMENT_BEAM_PID
$#   eid     pid      n1      n2      n3     rt1     rr1     rt2     rr2   local
       1       3    2059    2060       0       0       0       0       0       0
$#  pid1    pid2    
       2       1
       2       3    2061    2062       0       0       0       0       0       0
       2       1
       3       3    2063    2064       0       0       0       0       0       0
       2       1
       4       3    2065    2066       0       0       0       0       0       0
       2       1
*NODE
$
$ -----|-------|-------|-------|-------|-------|-------|-------|-------|
$ GRIDs defined in local coordinates
$ -----|-------|-------|-------|-------|-------|-------|-------|-------|
$#   nid               x               y               z      tc      rc  
       1           -0.01           -0.02           0.054       0       0
       2             0.0           -0.02           0.054       0       0
       3             0.0           -0.02           0.084       0       0
       4           -0.01           -0.02           0.084       0       0
       5            0.01           -0.02           0.054       0       0
       6             0.0           -0.02           0.024       0       0
       7            0.01           -0.02           0.024       0       0
       8            0.01           -0.02           0.084       0       0
       9           -0.02             0.0           0.094       0       0
      10           -0.04            0.02           0.094       0       0
      11           -0.04            0.02           0.014       0       0
      12           -0.02             0.0           0.014       0       0
      13            0.04            0.02           0.094       0       0
      14            0.02             0.0           0.094       0       0
      15            0.02             0.0           0.014       0       0
      16            0.04            0.02           0.014       0       0
      17           -0.04            0.08           0.094       0       0
      18           -0.04            0.08           0.014       0       0
      19            0.02           -0.01           0.094       0       0
      20            0.02           -0.01           0.014       0       0
$ ... 2046 like lines cut
*END
