$# LS-DYNA Keyword file created by LS-PrePost(R) V4.5.15 - 08Mar2018
$# Created on Jul-06-2018 (15:09:26)
$ Created by BW Lee, Copyright@BW Engineering 2018
$ Description
$ ===============================================================
$ Restart analysis file for Chapter 17. Floor panel load analysis
$ Implicit analysis - Prescribed Loading
$ Gravitational weight, Load_z
$ Unit system : m, kg, sec, Pa
$ ===============================================================
*KEYWORD
*TITLE
$#                                                                         title
LS-DYNA keyword deck by LS-PrePost
*CONTROL_IMPLICIT_AUTO
$#   iauto    iteopt    itewin     dtmin     dtmax     dtexp     kfail    kcycle
         1       100        30       0.0       0.0       0.0         0         0
*CONTROL_IMPLICIT_DYNAMICS
$#   imass     gamma      beta    tdybir    tdydth    tdybur     irate     alpha
         1       0.6       0.4       0.0       0.8       0.8         0       0.0
*CONTROL_IMPLICIT_GENERAL
$#  imflag       dt0    imform      nsbs       igs     cnstn      form    zero_v
         1       0.1         2         0         2         0         0         0
*CONTROL_IMPLICIT_SOLUTION
$#  nsolvr    ilimit    maxref     dctol     ectol     rctol     lstol    abstol
        12        11        15     0.001      0.011.00000E10       0.91.0000E-10
$#   dnorm    diverg     istif   nlprint    nlnorm   d3itctl     cpchk     
         2         1         1         0         2         0         0
$#  arcctl    arcdir    arclen    arcmth    arcdmp    arcpsi    arcalf    arctim
         0         0       0.0         1         2         0         0         0
$#   lsmtd     lsdir      irad      srad      awgt      sred    
         4         2       0.0       0.0       0.0       0.0
*CONTROL_TERMINATION
$#  endtim    endcyc     dtmin    endeng    endmas     nosol     
       1.0         0       0.0       0.01.000000E8         0
*DATABASE_GLSTAT
$#      dt    binary      lcur     ioopt     
       0.1         0         0         1
*DATABASE_MATSUM
$#      dt    binary      lcur     ioopt     
       0.1         0         0         1
*DATABASE_RCFORC
$#      dt    binary      lcur     ioopt     
       0.1         0         0         1
*DATABASE_SWFORC
$#      dt    binary      lcur     ioopt     
       0.1         0         0         1
*DATABASE_BINARY_D3PLOT
$#      dt      lcdt      beam     npltc    psetid      
       0.1         0         0        10         0
$#   ioopt     
         0
*BOUNDARY_SPC_SET
$#    nsid       cid      dofx      dofy      dofz     dofrx     dofry     dofrz
         1         0         1         1         1         0         0         0
*SET_NODE_LIST_TITLE
NODESET(SPC) 1
$#     sid       da1       da2       da3       da4    solver      
         1       0.0       0.0       0.0       0.0MECH
$#    nid1      nid2      nid3      nid4      nid5      nid6      nid7      nid8
   2117151   2117165   2117164   2117152   2117150   2117163   2117157   2117156
   2117158   2117154   2117153   2117155   2117166   2117159   2117149   2117167
   2117160   2117148   2117162   2117161   2117147   2117289   2117280   2117279
   2117288   2117287   2117281   2117277   2117262   2117263   2117278   2117300
   2117301   2117299   2117294   2117282   2117283   2117296   2117284   2117295
   2117285   2117293   2117265   2117264   2117290   2117291   2117267   2117266
   2117286   2117292   2117269   2117268   2117682   2118233   2117645   2118239
   2118228   2118227   2118252   2118229   2117612   2117640   2117611   2117583
   2117609   2117632   2117636   2117639   2117613   2117856   2117644   2118209
   2118259   2118210   2118248   2118241   2118242   2118249   2118230   2118251
   2118243   2118253   2118255   2118214   2118213   2118254   2118211   2118201
   2118200   2118250   2118237   2118247   2117686   2117687   2118231   2117688
   2118244   2118202   2118221   2118246   2118225   2118220   2118222   2118245
   2117690   2117681   2117689   2118212   2117710   2117857   2118207   2117810
   2118258   2118257   2118206   2118205   2118256   2118204   2118203   2118208
   2117809   2117808   2117807   2117859   2117858   2117806   2118215   2118217
   2117805   2118197   2118216   2118198   2118196   2118195   2117804   2118218
   2118194   2117803   2117802   2118219   2118224   2118223   2117683   2118234
   2118235   2117684   2118236   2117855   2118238   2118240   2118226   2117685
   2118199   2118260   2118232   2117637   2117624   2117625   2117635   2117634
$ ... 23 like lines cut
*BOUNDARY_SPC_SET
$#    nsid       cid      dofx      dofy      dofz     dofrx     dofry     dofrz
        12         0         1         1         1         0         0         0
*SET_NODE_LIST_TITLE
NODESET(SPC) 12
$#     sid       da1       da2       da3       da4    solver      
        12       0.0       0.0       0.0       0.0MECH
$#    nid1      nid2      nid3      nid4      nid5      nid6      nid7      nid8
   2022263   2022264   2022265   2022266   2022309   2022315   2022316   2022317
   2022318   2022319   2022320   2022361   2022362   2022363   2022673   2022674
   2022675   2022676   2022677   2022678   2022679   2022680   2022681   2022723
   2022724   2022725   2022785   2022786   2022787   2023073   2023074   2023075
   2023076   2023077   2023078   2023096   2023102   2023103   2023104   2023288
   2023289   2023290   2023291   2023292   2023293   2023294   2023295   2025612
   2025613   2025614   2025687   2025688   2025689   2025690   2025691   2025692
   2025693   2025694   2025695   2025696   2025697   2025698   2025699   2025700
   2025701   2025702   2025703   2025704   2025705   2025706   2025707   2025708
   2025709   2025710   2025711   2025712   2025713   2025714   2025830   2025831
   2025832   2026035   2026036   2028594   2028595   2028596   2028685   2028686
   2028687   2028688   2028689   2028690   2028691   2028692   2028693   2028694
   2028695   2028696   2028697   2028698   2028699   2028700   2028701   2028702
   2028703   2028704   2028705   2028706   2028707   2028708   2028709   2028710
   2028711   2028812   2028813   2028848   2028849         0         0         0
*LOAD_BODY_Z
$#    lcid        sf    lciddr        xc        yc        zc       cid   
         4       1.0         0       0.0       0.0       0.0         0
*LOAD_NODE_SET
$#    nsid       dof      lcid        sf       cid        m1        m2        m3
         2         3         1      -1.0         0         0         0         0
         3         3         1      -1.0         0         0         0         0
         2         1         2       1.0         0         0         0         0
         3         1         2       1.0         0         0         0         0
         2         1         3       1.0         0         0         0         0
         3         1         3       1.0         0         0         0         0
*CONTACT_AUTOMATIC_SURFACE_TO_SURFACE
$#     cid                                                                 title
$#    ssid      msid     sstyp     mstyp    sboxid    mboxid       spr       mpr
         0         0         0         0         0         0         0         0
$#      fs        fd        dc        vc       vdc    penchk        bt        dt
       0.0       0.0       0.0       0.0       0.0         0       0.01.00000E20
$#     sfs       sfm       sst       mst      sfst      sfmt       fsf       vsf
       1.0       1.0       0.0       0.0       1.0       1.0       1.0       1.0
*CONTACT_SPOTWELD_ID
$#     cid                                                                 title
         2                                                                      
$#    ssid      msid     sstyp     mstyp    sboxid    mboxid       spr       mpr
        23         1         3         2         0         0         0         0
$#      fs        fd        dc        vc       vdc    penchk        bt        dt
       0.0       0.0       0.0       0.0       0.0         0       0.01.00000E20
$#     sfs       sfm       sst       mst      sfst      sfmt       fsf       vsf
       1.0       1.0       0.0       0.0       1.0       1.0       1.0       1.0
*SET_PART_LIST_TITLE
RightUp
$#     sid       da1       da2       da3       da4    solver      
         1       0.0       0.0       0.0       0.0MECH
$#    pid1      pid2      pid3      pid4      pid5      pid6      pid7      pid8
        22        12         0         0         0         0         0         0
*CONTACT_SPOTWELD_ID
$#     cid                                                                 title
         3                                                                      
$#    ssid      msid     sstyp     mstyp    sboxid    mboxid       spr       mpr
        25         2         3         2         0         0         0         0
$#      fs        fd        dc        vc       vdc    penchk        bt        dt
       0.0       0.0       0.0       0.0       0.0         0       0.01.00000E20
$#     sfs       sfm       sst       mst      sfst      sfmt       fsf       vsf
       1.0       1.0       0.0       0.0       1.0       1.0       1.0       1.0
*SET_PART_LIST_TITLE
RightB
$#     sid       da1       da2       da3       da4    solver      
         2       0.0       0.0       0.0       0.0MECH
$#    pid1      pid2      pid3      pid4      pid5      pid6      pid7      pid8
        22        11         0         0         0         0         0         0
*CONTACT_SPOTWELD_ID
$#     cid                                                                 title
         4                                                                      
$#    ssid      msid     sstyp     mstyp    sboxid    mboxid       spr       mpr
        24         3         3         2         0         0         0         0
$#      fs        fd        dc        vc       vdc    penchk        bt        dt
       0.0       0.0       0.0       0.0       0.0         0       0.01.00000E20
$#     sfs       sfm       sst       mst      sfst      sfmt       fsf       vsf
       1.0       1.0       0.0       0.0       1.0       1.0       1.0       1.0
*SET_PART_LIST_TITLE
LU
$#     sid       da1       da2       da3       da4    solver      
         3       0.0       0.0       0.0       0.0MECH
$#    pid1      pid2      pid3      pid4      pid5      pid6      pid7      pid8
        21        12         0         0         0         0         0         0
*CONTACT_SPOTWELD_ID
$#     cid                                                                 title
         5                                                                      
$#    ssid      msid     sstyp     mstyp    sboxid    mboxid       spr       mpr
        26         4         3         2         0         0         0         0
$#      fs        fd        dc        vc       vdc    penchk        bt        dt
       0.0       0.0       0.0       0.0       0.0         0       0.01.00000E20
$#     sfs       sfm       sst       mst      sfst      sfmt       fsf       vsf
       1.0       1.0       0.0       0.0       1.0       1.0       1.0       1.0
*SET_PART_LIST_TITLE
LB
$#     sid       da1       da2       da3       da4    solver      
         4       0.0       0.0       0.0       0.0MECH
$#    pid1      pid2      pid3      pid4      pid5      pid6      pid7      pid8
        21        11         0         0         0         0         0         0
*PART
$#                                                                         title
FloorPanel
$#     pid     secid       mid     eosid      hgid      grav    adpopt      tmid
        10         1         1         0         0         0         0         0
*SECTION_SHELL
$#   secid    elform      shrf       nip     propt   qr/irid     icomp     setyp
         1         2       1.0         3       1.0         0         0         1
$#      t1        t2        t3        t4      nloc     marea      idof    edgset
     0.003     0.003     0.003     0.003       0.0       0.0       0.0         0
*MAT_PIECEWISE_LINEAR_PLASTICITY
$#     mid        ro         e        pr      sigy      etan      fail      tdel
         1    7850.02.10000E11       0.33.000000E85.000000E71.00000E21       0.0
$#       c         p      lcss      lcsr        vp  
       0.0       0.0         0         0       0.0
$#    eps1      eps2      eps3      eps4      eps5      eps6      eps7      eps8
       0.0       0.0       0.0       0.0       0.0       0.0       0.0       0.0
$#     es1       es2       es3       es4       es5       es6       es7       es8
       0.0       0.0       0.0       0.0       0.0       0.0       0.0       0.0
*PART
$#                                                                         title
CrossBeam1
$#     pid     secid       mid     eosid      hgid      grav    adpopt      tmid
        11         1         1         0         0         0         0         0
*PART
$#                                                                         title
CrossBeam2
$#     pid     secid       mid     eosid      hgid      grav    adpopt      tmid
        12         1         1         0         0         0         0         0
*PART
$#                                                                         title
RailFront1
$#     pid     secid       mid     eosid      hgid      grav    adpopt      tmid
        21         1         1         0         0         0         0         0
*PART
$#                                                                         title
RailFront2
$#     pid     secid       mid     eosid      hgid      grav    adpopt      tmid
        22         1         1         0         0         0         0         0
*PART
$#                                                                         title
sw 12 22
$#     pid     secid       mid     eosid      hgid      grav    adpopt      tmid
        23         2         2         0         0         0         0         0
*SECTION_BEAM_TITLE
spotweld
$#   secid    elform      shrf   qr/irid       cst     scoor       nsm   
         2         9       1.0         1         1       0.0       0.0
$#     ts1       ts2       tt1       tt2     print     
     0.002     0.002       0.0       0.0       0.0
*MAT_SPOTWELD_TITLE
Spotweld
$#     mid        ro         e        pr      sigy        eh        dt     tfail
         2    7850.02.04000E11       0.34.000000E85.000000E8       0.0       0.0
$#   efail       nrr       nrs       nrt       mrr       mss       mtt        nf
       0.0       0.0       0.0       0.0       0.0       0.0       0.0       0.0
*PART
$#                                                                         title
sw 12 21
$#     pid     secid       mid     eosid      hgid      grav    adpopt      tmid
        24         2         2         0         0         0         0         0
*PART
$#                                                                         title
sw 11 22
$#     pid     secid       mid     eosid      hgid      grav    adpopt      tmid
        25         2         2         0         0         0         0         0
*PART
$#                                                                         title
sw 11 21
$#     pid     secid       mid     eosid      hgid      grav    adpopt      tmid
        26         2         2         0         0         0         0         0
*DEFINE_CURVE_TITLE
Load_z
$#    lcid      sidr       sfa       sfo      offa      offo    dattyp     lcint
         1         0       1.0       1.0       0.0       0.0         0         0
$#                a1                  o1  
                 0.0                 0.0
                 1.0               800.0
                 2.0               800.0
*DEFINE_CURVE_TITLE
Load_x
$#    lcid      sidr       sfa       sfo      offa      offo    dattyp     lcint
         2         0       1.0       1.0       0.0       0.0         0         0
$#                a1                  o1  
                 0.0                 0.0
                 1.0                 0.0
                 2.0                 0.0
*DEFINE_CURVE_TITLE
Load_y
$#    lcid      sidr       sfa       sfo      offa      offo    dattyp     lcint
         3         0       1.0       1.0       0.0       0.0         0         0
$#                a1                  o1  
                 0.0                 0.0
                 1.0                 0.0
                 2.0                 0.0
*DEFINE_CURVE_TITLE
G_z
$#    lcid      sidr       sfa       sfo      offa      offo    dattyp     lcint
         4         0       1.0       1.0       0.0       0.0         0         0
$#                a1                  o1  
                 0.0                 0.0
                 1.0                 9.8
                 2.0                 9.8
*SET_NODE_LIST_TITLE
Load1
$#     sid       da1       da2       da3       da4    solver      
         2       0.0       0.0       0.0       0.0MECH
$#    nid1      nid2      nid3      nid4      nid5      nid6      nid7      nid8
   2028243   2028244   2028267   2028277   2028278   2027412   2028238   2028239
   2028240   2028273   2028299   2028266   2029612   2029615   2029616   2029617
   2029632   2029633   2029634   2029653   2029654   2029673   2029674   2029675
   2029676   2029481   2029484   2029485   2029486   2029511   2029512   2029513
   2029514   2029520   2029521   2029522   2029453   2029454   2029455   2029551
   2029372   2029418   2029419   2029449   2029460   2029552   2029583   2029592
*SET_NODE_LIST_TITLE
Load2
$#     sid       da1       da2       da3       da4    solver      
         3       0.0       0.0       0.0       0.0MECH
$#    nid1      nid2      nid3      nid4      nid5      nid6      nid7      nid8
   2023872   2023881   2023882   2023883   2023889   2023910   2023913   2023919
   2023920   2023921   2023984   2023985   2024827   2024828   2024778   2024779
   2024780   2024781   2024782   2024783   2024784   2024785   2024786   2025975
   2025976   2025977   2026146   2026637   2026161   2026162   2026163   2025974
   2026147   2026636   2026634   2026635   2025978   2026633   2026577   2026591
   2026592   2026593   2026575   2026576   2026594   2026632         0         0
*SET_NODE_LIST_TITLE
NODESET(CNRB)
$#     sid       da1       da2       da3       da4    solver      
         4       0.0       0.0       0.0       0.0MECH
$#    nid1      nid2      nid3      nid4      nid5      nid6      nid7      nid8
   3092652   2028345   2028344   2028343   2028342   2028339         0         0
*SET_NODE_LIST_TITLE
NODESET(CNRB)
$#     sid       da1       da2       da3       da4    solver      
         5       0.0       0.0       0.0       0.0MECH
$#    nid1      nid2      nid3      nid4      nid5      nid6      nid7      nid8
   3092653   2026999   2027095   2027002   2027001   2027000         0         0
*SET_NODE_LIST_TITLE
NODESET(CNRB)
$#     sid       da1       da2       da3       da4    solver      
         6       0.0       0.0       0.0       0.0MECH
$#    nid1      nid2      nid3      nid4      nid5      nid6      nid7      nid8
   3092654   2157400   2157519   2157402   2157384   2157383         0         0
*SET_NODE_LIST_TITLE
NODESET(CNRB)
$#     sid       da1       da2       da3       da4    solver      
         7       0.0       0.0       0.0       0.0MECH
$#    nid1      nid2      nid3      nid4      nid5      nid6      nid7      nid8
   3092655   2157340   2157219   2157178   2157179   2157339   2157216         0
*SET_NODE_LIST_TITLE
NODESET(CNRB)
$#     sid       da1       da2       da3       da4    solver      
         8       0.0       0.0       0.0       0.0MECH
$#    nid1      nid2      nid3      nid4      nid5      nid6      nid7      nid8
   3092656   2157339   2157216   2157340   2157219   2157178   2157179   2028339
   2028345   2028344   2028343   2028342         0         0         0         0
*SET_NODE_LIST_TITLE
NODESET(CNRB)
$#     sid       da1       da2       da3       da4    solver      
         9       0.0       0.0       0.0       0.0MECH
$#    nid1      nid2      nid3      nid4      nid5      nid6      nid7      nid8
   3092657   2027002   2027001   2027000   2026999   2027095   2157384   2157383
   2157400   2157519   2157402         0         0         0         0         0
*SET_NODE_LIST_TITLE
NODESET(CNRB)
$#     sid       da1       da2       da3       da4    solver      
        10       0.0       0.0       0.0       0.0MECH
$#    nid1      nid2      nid3      nid4      nid5      nid6      nid7      nid8
   3092658   2116681   2116680   2116721   2116842   2116718   2116841   2025221
   2025220   2025248   2025247   2025223   2025222         0         0         0
*SET_NODE_LIST_TITLE
NODESET(CNRB)
$#     sid       da1       da2       da3       da4    solver      
        11       0.0       0.0       0.0       0.0MECH
$#    nid1      nid2      nid3      nid4      nid5      nid6      nid7      nid8
   3092659   2024193   2024194   2024145   2024097   2024084   2117021   2116904
   2116886   2116885   2116902         0         0         0         0         0
*CONSTRAINED_NODAL_RIGID_BODY
$#     pid       cid      nsid     pnode      iprt    drflag    rrflag      
   2000082         0         8   3092656         0         0         0
*CONSTRAINED_NODAL_RIGID_BODY
$#     pid       cid      nsid     pnode      iprt    drflag    rrflag      
   2000083         0         9   3092657         0         0         0
*CONSTRAINED_NODAL_RIGID_BODY
$#     pid       cid      nsid     pnode      iprt    drflag    rrflag      
   2000084         0        10   3092658         0         0         0
*CONSTRAINED_NODAL_RIGID_BODY
$#     pid       cid      nsid     pnode      iprt    drflag    rrflag      
   2000085         0        11   3092659         0         0         0
*ELEMENT_SHELL
$#   eid     pid      n1      n2      n3      n4      n5      n6      n7      n8
 2007582      10 2019695 2019694 2019696 2019696       0       0       0       0
 2007583      10 2019724 2019723 2019721 2019721       0       0       0       0
 2007584      10 2019753 2019752 2019445 2019445       0       0       0       0
 2007585      10 2019868 2019869 2019866 2019866       0       0       0       0
 2007586      10 2019887 2019886 2019798 2019798       0       0       0       0
 2007587      10 2019904 2019898 2019890 2019890       0       0       0       0
 2007588      10 2019924 2019790 2019767 2019767       0       0       0       0
 2007589      10 2019923 2019898 2019801 2019801       0       0       0       0
 2007590      10 2019916 2019766 2019765 2019765       0       0       0       0
 2007591      10 2019765 2019764 2019915 2019915       0       0       0       0
 2007592      10 2019921 2019920 2019761 2019761       0       0       0       0
 2007593      10 2019997 2020011 2019996 2019996       0       0       0       0
 2007594      10 2020098 2020102 2020094 2020094       0       0       0       0
 2007595      10 2020002 2020103 2020104 2020104       0       0       0       0
 2007596      10 2020118 2020113 2019708 2019708       0       0       0       0
 2007597      10 2020119 2020012 2019996 2019996       0       0       0       0
 2007598      10 2020178 2020177 2020173 2020173       0       0       0       0
 2007599      10 2020274 2020273 2019529 2019529       0       0       0       0
 2007600      10 2021893 2021869 2021894 2021894       0       0       0       0
 2007601      10 2020302 2020301 2020289 2020289       0       0       0       0
$ ... 17883 like lines cut
*ELEMENT_BEAM
$#   eid     pid      n1      n2      n3     rt1     rr1     rt2     rr2   local
       1      23 3092660 3092661       0       0       0       0       0       0
       2      23 3092662 3092663       0       0       0       0       0       0
       3      23 3092664 3092665       0       0       0       0       0       0
       4      23 3092666 3092667       0       0       0       0       0       0
       5      23 3092668 3092669       0       0       0       0       0       0
       6      23 3092670 3092671       0       0       0       0       0       0
       7      23 3092672 3092673       0       0       0       0       0       0
       8      24 3092674 3092675       0       0       0       0       0       0
       9      24 3092676 3092677       0       0       0       0       0       0
      10      24 3092678 3092679       0       0       0       0       0       0
      11      24 3092680 3092681       0       0       0       0       0       0
      12      24 3092682 3092683       0       0       0       0       0       0
      13      24 3092684 3092685       0       0       0       0       0       0
      14      24 3092686 3092687       0       0       0       0       0       0
      15      25 3092688 3092689       0       0       0       0       0       0
      16      25 3092690 3092691       0       0       0       0       0       0
      17      25 3092692 3092693       0       0       0       0       0       0
      18      25 3092694 3092695       0       0       0       0       0       0
      19      25 3092696 3092697       0       0       0       0       0       0
      20      25 3092698 3092699       0       0       0       0       0       0
$ ... 8 like lines cut
*ELEMENT_MASS
$#   eid     nid            mass     pid   
       1 2026705             0.5       0
       2 2026704             0.5       0
       3 2026908             0.5       0
       4 2026702             0.5       0
       5 2026701             0.5       0
       6 2026909             0.5       0
       7 2026898             0.5       0
       8 2026703             0.5       0
       9 2026899             0.5       0
      10 2026900             0.5       0
      11 2026696             0.5       0
      12 2026674             0.5       0
      13 2026679             0.5       0
      14 2026907             0.5       0
      15 2026678             0.5       0
      16 2026897             0.5       0
      17 2026697             0.5       0
      18 2026906             0.5       0
      19 2026896             0.5       0
      20 2026903             0.5       0
$ ... 476 like lines cut
*NODE
$#   nid               x               y               z      tc      rc  
 2000000             0.0             0.0             0.0       0       0
 2000036       -1301.201        786.6312        1005.702       0       0
 2000098       -1430.903         787.753        1095.268       0       0
 2000165       -1398.437        787.9948        1094.267       0       0
 2000183       -1367.698        784.9506        1071.145       0       0
 2000214       -1297.726        785.5164        1068.668       0       0
 2000224       -1304.326        790.8494        1099.442       0       0
 2000255       -1373.904        787.2962        941.0065       0       0
 2000290       -1303.938        787.5232        950.1993       0       0
 2000304       -1317.946        788.7724        898.6064       0       0
 2000329       -1369.951        788.2377        901.0745       0       0
 2000416       -1398.831        786.1567         1024.24       0       0
 2000417       -1387.899        786.0561        1023.245       0       0
 2000421       -1389.218        785.8672        1034.731       0       0
 2000422       -1389.741         785.583        1045.439       0       0
 2000425        -1399.99         785.842         1036.12       0       0
 2000426       -1400.262        785.5422        1047.403       0       0
 2000428        -1368.42        785.6443        1041.624       0       0
 2000434       -1386.476        786.5894         998.863       0       0
 2000436       -1397.525        786.6633        999.2048       0       0
$ ... 42594 like lines cut
*END
