$# LS-DYNA Keyword file created by LS-PrePost(R) V4.3 (Beta) - 22Sep2015(08:00)
$# Created on Nov-28-2017 (17:39:50)
*KEYWORD  
*CONTROL_TERMINATION
$#  endtim    endcyc     dtmin    endeng    endmas      
      0.01         0       0.0       0.01.000000E8
*DATABASE_BINARY_D3PLOT
$#      dt      lcdt      beam     npltc    psetid      
       0.0         0         0       100         0
$#   ioopt     
         0
*BOUNDARY_SPC_SET
$#    nsid       cid      dofx      dofy      dofz     dofrx     dofry     dofrz
         2         0         1         1         1         0         0         0
*SET_NODE_LIST_TITLE
NODESET(SPC) 2
$#     sid       da1       da2       da3       da4    solver      
         2       0.0       0.0       0.0       0.0MECH
$#    nid1      nid2      nid3      nid4      nid5      nid6      nid7      nid8
      2617      2625      2624      2623      2614      2573      2586      2585
      2584      2578      3764      3767      3765      3759      3790      3792
      3787      4262      4271      4465      4466      4462      4709      4280
      4711      2958      2942      6209      2953      2954      2955      2956
      6204      6486      6505      6488      6701      6711      6694      6713
      6692      6810      6811      6803      6884      6902      6903      6888
      5206      6924      5210      6922      5217      5218         0         0
*BOUNDARY_SPC_SET
$#    nsid       cid      dofx      dofy      dofz     dofrx     dofry     dofrz
         3         0         1         1         0         0         0         0
*SET_NODE_LIST_TITLE
NODESET(SPC) 3
$#     sid       da1       da2       da3       da4    solver      
         3       0.0       0.0       0.0       0.0MECH
$#    nid1      nid2      nid3      nid4      nid5      nid6      nid7      nid8
     11175     11176     11177     11178     11179     11180     11181     11182
     11183     11184     11185     11186     11187     11188     11189     11190
     11191     11192     11193     11194     11195     11196     11197     11198
     11199     11200     11201     11202     11203     11204     11205     11206
     11207     11208     11209         0         0         0         0         0
*CONTACT_AUTOMATIC_SURFACE_TO_SURFACE_ID
$#     cid                                                                 title
         1                                                                      
$#    ssid      msid     sstyp     mstyp    sboxid    mboxid       spr       mpr
         5         1         3         3         0         0         0         0
$#      fs        fd        dc        vc       vdc    penchk        bt        dt
       0.0       0.0       0.0       0.0       0.0         0       0.01.00000E20
$#     sfs       sfm       sst       mst      sfst      sfmt       fsf       vsf
       1.0       1.0       0.0       0.0       1.0       1.0       1.0       1.0
*CONTACT_AUTOMATIC_SURFACE_TO_SURFACE_ID
$#     cid                                                                 title
         2                                                                      
$#    ssid      msid     sstyp     mstyp    sboxid    mboxid       spr       mpr
         5         2         3         3         0         0         0         0
$#      fs        fd        dc        vc       vdc    penchk        bt        dt
       0.0       0.0       0.0       0.0       0.0         0       0.01.00000E20
$#     sfs       sfm       sst       mst      sfst      sfmt       fsf       vsf
       1.0       1.0       0.0       0.0       1.0       1.0       1.0       1.0
*CONTACT_AUTOMATIC_SURFACE_TO_SURFACE_ID
$#     cid                                                                 title
         3                                                                      
$#    ssid      msid     sstyp     mstyp    sboxid    mboxid       spr       mpr
         5         3         3         3         0         0         0         0
$#      fs        fd        dc        vc       vdc    penchk        bt        dt
       0.0       0.0       0.0       0.0       0.0         0       0.01.00000E20
$#     sfs       sfm       sst       mst      sfst      sfmt       fsf       vsf
       1.0       1.0       0.0       0.0       1.0       1.0       1.0       1.0
*CONTACT_AUTOMATIC_SURFACE_TO_SURFACE_ID
$#     cid                                                                 title
         4                                                                      
$#    ssid      msid     sstyp     mstyp    sboxid    mboxid       spr       mpr
         5         4         3         3         0         0         0         0
$#      fs        fd        dc        vc       vdc    penchk        bt        dt
       0.0       0.0       0.0       0.0       0.0         0       0.01.00000E20
$#     sfs       sfm       sst       mst      sfst      sfmt       fsf       vsf
       1.0       1.0       0.0       0.0       1.0       1.0       1.0       1.0
*CONTACT_AUTOMATIC_SURFACE_TO_SURFACE_ID
$#     cid                                                                 title
         5                                                                      
$#    ssid      msid     sstyp     mstyp    sboxid    mboxid       spr       mpr
         1         2         3         3         0         0         0         0
$#      fs        fd        dc        vc       vdc    penchk        bt        dt
       0.0       0.0       0.0       0.0       0.0         0       0.01.00000E20
$#     sfs       sfm       sst       mst      sfst      sfmt       fsf       vsf
       1.0       1.0       0.0       0.0       1.0       1.0       1.0       1.0
*CONTACT_AUTOMATIC_SURFACE_TO_SURFACE_ID
$#     cid                                                                 title
         6                                                                      
$#    ssid      msid     sstyp     mstyp    sboxid    mboxid       spr       mpr
         1         3         3         3         0         0         0         0
$#      fs        fd        dc        vc       vdc    penchk        bt        dt
       0.0       0.0       0.0       0.0       0.0         0       0.01.00000E20
$#     sfs       sfm       sst       mst      sfst      sfmt       fsf       vsf
       1.0       1.0       0.0       0.0       1.0       1.0       1.0       1.0
*CONTACT_AUTOMATIC_SURFACE_TO_SURFACE_ID
$#     cid                                                                 title
         7                                                                      
$#    ssid      msid     sstyp     mstyp    sboxid    mboxid       spr       mpr
         1         4         3         3         0         0         0         0
$#      fs        fd        dc        vc       vdc    penchk        bt        dt
       0.0       0.0       0.0       0.0       0.0         0       0.01.00000E20
$#     sfs       sfm       sst       mst      sfst      sfmt       fsf       vsf
       1.0       1.0       0.0       0.0       1.0       1.0       1.0       1.0
*PART
$#                                                                         title
LSHELL1
$#     pid     secid       mid     eosid      hgid      grav    adpopt      tmid
         1         1         3         0         0         0         0         0
*SECTION_SHELL_TITLE
door
$#   secid    elform      shrf       nip     propt   qr/irid     icomp     setyp
         1         2       1.0         4       1.0         0         0         1
$#      t1        t2        t3        t4      nloc     marea      idof    edgset
     0.003     0.003     0.003     0.003       0.0       0.0       0.0         0
*MAT_PLASTIC_KINEMATIC_TITLE
Plastic
$#     mid        ro         e        pr      sigy      etan      beta    
         3    7850.02.10000E110.330000011.500000E9       0.0       0.0
$#     src       srp        fs        vp  
       0.0       0.00.85000002       0.0
*PART
$#                                                                         title
LSHELL2
$#     pid     secid       mid     eosid      hgid      grav    adpopt      tmid
         2         1         3         0         0         0         0         0
*PART
$#                                                                         title
LSHELL3
$#     pid     secid       mid     eosid      hgid      grav    adpopt      tmid
         3         1         3         0         0         0         0         0
*PART
$#                                                                         title
LSHELL4
$#     pid     secid       mid     eosid      hgid      grav    adpopt      tmid
         4         1         3         0         0         0         0         0
*PART
$#                                                                         title
cylindershell
$#     pid     secid       mid     eosid      hgid      grav    adpopt      tmid
         5         2         2         0         0         0         0         0
*SECTION_SHELL_TITLE
Pole
$#   secid    elform      shrf       nip     propt   qr/irid     icomp     setyp
         2         2       1.0         4       1.0         0         0         1
$#      t1        t2        t3        t4      nloc     marea      idof    edgset
     0.002     0.002     0.002     0.002       0.0       0.0       0.0         0
*MAT_RIGID_TITLE
Pole
$#     mid        ro         e        pr         n    couple         m     alias
         2    7850.02.09000E110.33000001       0.0       0.0       0.0          
$#     cmo      con1      con2    
       0.0         0         0
$#lco or a1        a2        a3        v1        v2        v3  
       0.0       0.0       0.0       0.0       0.0       0.0
*MAT_POWER_LAW_PLASTICITY_TITLE
Door
$#     mid        ro         e        pr         k         n       src       srp
         1    7850.02.09000E110.33000001    0.09740.33500001       0.0       0.0
$#    sigy        vp      epsf    
       0.0       0.00.48699999
*INITIAL_VELOCITY_RIGID_BODY
$#     pid        vx        vy        vz       vxr       vyr       vzr      icid
         5       0.0       0.0      -5.0       0.0       0.0       0.0         0
*SET_NODE_LIST_TITLE
NODESET(SPC) 1
$#     sid       da1       da2       da3       da4    solver      
         1       0.0       0.0       0.0       0.0MECH
$#    nid1      nid2      nid3      nid4      nid5      nid6      nid7      nid8
        45       377       378       379       380       428       436       437
       573       675       676       677       681       682       683       822
       871       872       873       876       927       928       930       931
      1293      1295      1296      1297      1299      1300      1305      1307
      1308      1309      1310      1311      1360      1361      1363      1429
      1698      1701      1704      1707      1708      1709      1710      1711
      1712      1715      2566      2567      2568      2569      2571      2579
      2580      2581      2582      2583      2587      2588      2589      2593
      2596      2597      2598      2599      2600      2601      2612      2613
      2617      2618      2619      2620      2621      2622      2625      3745
      3746      3747      3748      3757      3758      3760      3761      3762
      3763      3766      3768      3769      3778      3781      3782      3783
      3784      3785      3788      3789      3791      4256      4258      4259
      4260      4270      4273      4277        51       376       429       430
       431       432       433       434       622       623       626       628
       678       679       680       877       924       932       933       934
      1025      1028      1085      1086      1087      1088      1089      1092
      1095      1141      1142      1145      1146      1147      1149      1201
      1202      1203      5212      6196      6199      6200      6201      6202
      6203      6205      6215      6498      6499      6500      6502      6510
$ ... 4 like lines cut
*ELEMENT_SHELL
$#   eid     pid      n1      n2      n3      n4      n5      n6      n7      n8
       1       1      51      99     105     376       0       0       0       0
       2       1      99     100     106     105       0       0       0       0
       3       1     100     101     107     106       0       0       0       0
       4       1     101     102     108     107       0       0       0       0
       5       1     102     103     109     108       0       0       0       0
       6       1     103     104     110     109       0       0       0       0
       7       1     104       1       3     110       0       0       0       0
       8       1      45      52     111      50       0       0       0       0
       9       1     375     376     105     106       0       0       0       0
      10       1      52     331     156     111       0       0       0       0
      11       1     374     375     106     113       0       0       0       0
      12       1     373     374     113     114       0       0       0       0
      13       1     372     373     114     115       0       0       0       0
      14       1     371     372     115     116       0       0       0       0
      15       1      92     371     116     117       0       0       0       0
      16       1      91      92     117     118       0       0       0       0
      17       1     368      91     118     119       0       0       0       0
      18       1      89     368     119     120       0       0       0       0
      19       1     366      89     120     121       0       0       0       0
      20       1      87     366     121     122       0       0       0       0
$ ... 6679 like lines cut
*NODE
$#   nid               x               y               z      tc      rc  
       1      0.28230178      0.30759251             0.0       0       0
       2     -0.40067995      0.30759251             0.0       0       0
       3      0.26641846      0.30759251             0.0       0       0
       4      0.25053519      0.30759251             0.0       0       0
       5      0.23465185      0.30759251             0.0       0       0
       6      0.21876855      0.30759251             0.0       0       0
       7      0.20288526      0.30759251             0.0       0       0
       8      0.18700196      0.30759251             0.0       0       0
       9      0.17111866      0.30759251             0.0       0       0
      10      0.15523538      0.30759251             0.0       0       0
      11      0.13935208      0.30759251             0.0       0       0
      12      0.12346877      0.30759251             0.0       0       0
      13      0.10758549      0.30759251             0.0       0       0
      14      0.09170219      0.30759251             0.0       0       0
      15       0.0758189      0.30759251             0.0       0       0
      16       0.0599356      0.30759251             0.0       0       0
      17       0.0440523      0.30759251             0.0       0       0
      18      0.02816901      0.30759251             0.0       0       0
      19      0.01228571      0.30759251             0.0       0       0
      20     -0.00359758      0.30759251             0.0       0       0
$ ... 6705 like lines cut
*CONSTRAINED_SPOTWELD
$#      n1        n2        sn        ss         n         m        tf        ep
      1864      3202      36.0      18.0       2.0       2.01.00000E201.00000E20
*CONSTRAINED_SPOTWELD_ID
         1
      1869      3165       0.0       0.0       0.0       0.01.00000E201.00000E20
*CONSTRAINED_SPOTWELD_ID
         2
      1873      3169       0.0       0.0       0.0       0.01.00000E201.00000E20
*CONSTRAINED_SPOTWELD_ID
         3
      1933      3130       0.0       0.0       0.0       0.01.00000E201.00000E20
*CONSTRAINED_SPOTWELD_ID
         4
      1937      3134       0.0       0.0       0.0       0.01.00000E201.00000E20
*CONSTRAINED_SPOTWELD_ID
         5
      2024      2553       0.0       0.0       0.0       0.01.00000E201.00000E20
*CONSTRAINED_SPOTWELD_ID
         6
      2027      2556       0.0       0.0       0.0       0.01.00000E201.00000E20
*CONSTRAINED_SPOTWELD_ID
         7
      1991      2522       0.0       0.0       0.0       0.01.00000E201.00000E20
*CONSTRAINED_SPOTWELD_ID
         8
      1994      2525       0.0       0.0       0.0       0.01.00000E201.00000E20
*CONSTRAINED_SPOTWELD_ID
         9
      1957      2519       0.0       0.0       0.0       0.01.00000E201.00000E20
*CONSTRAINED_SPOTWELD_ID
        10
      1960      2470       0.0       0.0       0.0       0.01.00000E201.00000E20
*CONSTRAINED_SPOTWELD_ID
        11
      2034      4241       0.0       0.0       0.0       0.01.00000E201.00000E20
*CONSTRAINED_SPOTWELD_ID
        12
      2037      4227       0.0       0.0       0.0       0.01.00000E201.00000E20
*CONSTRAINED_SPOTWELD_ID
        13
      2040      4230       0.0       0.0       0.0       0.01.00000E201.00000E20
*CONSTRAINED_SPOTWELD_ID
        14
      2043      4233       0.0       0.0       0.0       0.01.00000E201.00000E20
*CONSTRAINED_SPOTWELD_ID
        15
      2046      4236       0.0       0.0       0.0       0.01.00000E201.00000E20
*CONSTRAINED_SPOTWELD_ID
        16
      1813      5942       0.0       0.0       0.0       0.01.00000E201.00000E20
*CONSTRAINED_SPOTWELD_ID
        17
      2965      1718       0.0       0.0       0.0       0.01.00000E201.00000E20
*CONSTRAINED_SPOTWELD_ID
        18
      1902      3318       0.0       0.0       0.0       0.01.00000E201.00000E20
*CONSTRAINED_SPOTWELD_ID
        19
      1899      3315       0.0       0.0       0.0       0.01.00000E201.00000E20
*CONSTRAINED_SPOTWELD_ID
        20
      1896      3312       0.0       0.0       0.0       0.01.00000E201.00000E20
*CONSTRAINED_SPOTWELD_ID
        21
      1893      3309       0.0       0.0       0.0       0.01.00000E201.00000E20
*CONSTRAINED_SPOTWELD_ID
        22
      1889      3336       0.0       0.0       0.0       0.01.00000E201.00000E20
*CONSTRAINED_SPOTWELD_ID
        23
      1696      2595       0.0       0.0       0.0       0.01.00000E201.00000E20
*CONSTRAINED_SPOTWELD_ID
        24
      1711      2600       0.0       0.0       0.0       0.01.00000E201.00000E20
*CONSTRAINED_SPOTWELD_ID
        25
      1709      2598       0.0       0.0       0.0       0.01.00000E201.00000E20
*CONSTRAINED_SPOTWELD_ID
        26
      1704      2566       0.0       0.0       0.0       0.01.00000E201.00000E20
*CONSTRAINED_SPOTWELD_ID
        27
      1295      2567       0.0       0.0       0.0       0.01.00000E201.00000E20
*CONSTRAINED_SPOTWELD_ID
        28
       872      3747       0.0       0.0       0.0       0.01.00000E201.00000E20
*CONSTRAINED_SPOTWELD_ID
        29
       677      3784       0.0       0.0       0.0       0.01.00000E201.00000E20
*CONSTRAINED_SPOTWELD_ID
        30
       377      3778       0.0       0.0       0.0       0.01.00000E201.00000E20
*CONSTRAINED_SPOTWELD_ID
        31
       378      4258       0.0       0.0       0.0       0.01.00000E201.00000E20
*CONSTRAINED_SPOTWELD_ID
        32
        49      4290       0.0       0.0       0.0       0.01.00000E201.00000E20
*CONSTRAINED_SPOTWELD_ID
        33
        47      4288       0.0       0.0       0.0       0.01.00000E201.00000E20
*CONSTRAINED_SPOTWELD_ID
        34
         2      5122       0.0       0.0       0.0       0.01.00000E201.00000E20
*CONSTRAINED_SPOTWELD_ID
        35
        41      5202       0.0       0.0       0.0       0.01.00000E201.00000E20
*CONSTRAINED_SPOTWELD_ID
        36
        38      5158       0.0       0.0       0.0       0.01.00000E201.00000E20
*CONSTRAINED_SPOTWELD_ID
        37
        35      5155       0.0       0.0       0.0       0.01.00000E201.00000E20
*CONSTRAINED_SPOTWELD_ID
        38
        32      5152       0.0       0.0       0.0       0.01.00000E201.00000E20
*CONSTRAINED_SPOTWELD_ID
        39
        28      5148       0.0       0.0       0.0       0.01.00000E201.00000E20
*CONSTRAINED_SPOTWELD_ID
        40
        25      5145       0.0       0.0       0.0       0.01.00000E201.00000E20
*CONSTRAINED_SPOTWELD_ID
        41
        21      5141       0.0       0.0       0.0       0.01.00000E201.00000E20
*CONSTRAINED_SPOTWELD_ID
        42
        17      5137       0.0       0.0       0.0       0.01.00000E201.00000E20
*CONSTRAINED_SPOTWELD_ID
        43
        13      5133       0.0       0.0       0.0       0.01.00000E201.00000E20
*CONSTRAINED_SPOTWELD_ID
        44
         9      5129       0.0       0.0       0.0       0.01.00000E201.00000E20
*CONSTRAINED_SPOTWELD_ID
        45
         5      5125       0.0       0.0       0.0       0.01.00000E201.00000E20
*CONSTRAINED_SPOTWELD_ID
        46
         1      5115       0.0       0.0       0.0       0.01.00000E201.00000E20
*CONSTRAINED_SPOTWELD_ID
        47
       101      5118       0.0       0.0       0.0       0.01.00000E201.00000E20
*CONSTRAINED_SPOTWELD_ID
        48
        51      6895       0.0       0.0       0.0       0.01.00000E201.00000E20
*CONSTRAINED_SPOTWELD_ID
        49
       623      6816       0.0       0.0       0.0       0.01.00000E201.00000E20
*CONSTRAINED_SPOTWELD_ID
        50
       624      6817       0.0       0.0       0.0       0.01.00000E201.00000E20
*CONSTRAINED_SPOTWELD_ID
        51
       925      6706       0.0       0.0       0.0       0.01.00000E201.00000E20
*CONSTRAINED_SPOTWELD_ID
        52
      1146      6499       0.0       0.0       0.0       0.01.00000E201.00000E20
*CONSTRAINED_SPOTWELD_ID
        53
      1088      6202       0.0       0.0       0.0       0.01.00000E201.00000E20
*CONSTRAINED_SPOTWELD_ID
        54
      1084      6198       0.0       0.0       0.0       0.01.00000E201.00000E20
*CONSTRAINED_SPOTWELD_ID
        55
      1086      6200       0.0       0.0       0.0       0.01.00000E201.00000E20
*CONSTRAINED_SPOTWELD_ID
        56
      6941      2938       0.0       0.0       0.0       0.01.00000E201.00000E20
*CONSTRAINED_SPOTWELD_ID
        57
      7608      6228       0.0       0.0       0.0       0.01.00000E201.00000E20
*CONSTRAINED_SPOTWELD_ID
        58
      7611      6227       0.0       0.0       0.0       0.01.00000E201.00000E20
*CONSTRAINED_SPOTWELD_ID
        59
      7621      2935       0.0       0.0       0.0       0.01.00000E201.00000E20
*CONSTRAINED_SPOTWELD_ID
        60
      7610      6224       0.0       0.0       0.0       0.01.00000E201.00000E20
*CONSTRAINED_SPOTWELD_ID
        61
      7613      6225       0.0       0.0       0.0       0.01.00000E201.00000E20
*CONSTRAINED_SPOTWELD_ID
        62
      9615      6222       0.0       0.0       0.0       0.01.00000E201.00000E20
*CONSTRAINED_SPOTWELD_ID
        63
      9618      6435       0.0       0.0       0.0       0.01.00000E201.00000E20
*CONSTRAINED_SPOTWELD_ID
        64
      9617      6420       0.0       0.0       0.0       0.01.00000E201.00000E20
*CONSTRAINED_SPOTWELD_ID
        65
      9616      6437       0.0       0.0       0.0       0.01.00000E201.00000E20
*CONSTRAINED_SPOTWELD_ID
        66
      9762      6418       0.0       0.0       0.0       0.01.00000E201.00000E20
*CONSTRAINED_SPOTWELD_ID
        67
      9745      6605       0.0       0.0       0.0       0.01.00000E201.00000E20
*CONSTRAINED_SPOTWELD_ID
        68
      9744      6606       0.0       0.0       0.0       0.01.00000E201.00000E20
*CONSTRAINED_SPOTWELD_ID
        69
      9743      6607       0.0       0.0       0.0       0.01.00000E201.00000E20
*CONSTRAINED_SPOTWELD_ID
        70
      9761      6746       0.0       0.0       0.0       0.01.00000E201.00000E20
*CONSTRAINED_SPOTWELD_ID
        71
      7164      2660       0.0       0.0       0.0       0.01.00000E201.00000E20
*CONSTRAINED_SPOTWELD_ID
        72
      7165      2611       0.0       0.0       0.0       0.01.00000E201.00000E20
*CONSTRAINED_SPOTWELD_ID
        73
      7174      2610       0.0       0.0       0.0       0.01.00000E201.00000E20
*CONSTRAINED_SPOTWELD_ID
        74
      7136      2609       0.0       0.0       0.0       0.01.00000E201.00000E20
*CONSTRAINED_SPOTWELD_ID
        75
      7135      2608       0.0       0.0       0.0       0.01.00000E201.00000E20
*CONSTRAINED_SPOTWELD_ID
        76
      7133      2607       0.0       0.0       0.0       0.01.00000E201.00000E20
*CONSTRAINED_SPOTWELD_ID
        77
      7246      2570       0.0       0.0       0.0       0.01.00000E201.00000E20
*CONSTRAINED_SPOTWELD_ID
        78
      7966      3881       0.0       0.0       0.0       0.01.00000E201.00000E20
*CONSTRAINED_SPOTWELD_ID
        79
      7978      3775       0.0       0.0       0.0       0.01.00000E201.00000E20
*CONSTRAINED_SPOTWELD_ID
        80
      7979      3776       0.0       0.0       0.0       0.01.00000E201.00000E20
*CONSTRAINED_SPOTWELD_ID
        81
      7937      3777       0.0       0.0       0.0       0.01.00000E201.00000E20
*CONSTRAINED_SPOTWELD_ID
        82
      7977      4023       0.0       0.0       0.0       0.01.00000E201.00000E20
*CONSTRAINED_SPOTWELD_ID
        83
      7867      4461       0.0       0.0       0.0       0.01.00000E201.00000E20
*CONSTRAINED_SPOTWELD_ID
        84
      7912      4460       0.0       0.0       0.0       0.01.00000E201.00000E20
*CONSTRAINED_SPOTWELD_ID
        85
      7911      4381       0.0       0.0       0.0       0.01.00000E201.00000E20
*CONSTRAINED_SPOTWELD_ID
        86
      7905      4379       0.0       0.0       0.0       0.01.00000E201.00000E20
*CONSTRAINED_SPOTWELD_ID
        87
      1771      3019       0.0       0.0       0.0       0.01.00000E201.00000E20
*CONSTRAINED_SPOTWELD_ID
        88
      1775      3023       0.0       0.0       0.0       0.01.00000E201.00000E20
*CONSTRAINED_SPOTWELD_ID
        89
      1779      3027       0.0       0.0       0.0       0.01.00000E201.00000E20
*CONSTRAINED_SPOTWELD_ID
        90
      1783      3031       0.0       0.0       0.0       0.01.00000E201.00000E20
*CONSTRAINED_SPOTWELD_ID
        91
      1787      3035       0.0       0.0       0.0       0.01.00000E201.00000E20
*CONSTRAINED_SPOTWELD_ID
        92
      1791      3039       0.0       0.0       0.0       0.01.00000E201.00000E20
*CONSTRAINED_SPOTWELD_ID
        93
      1795      3043       0.0       0.0       0.0       0.01.00000E201.00000E20
*CONSTRAINED_SPOTWELD_ID
        94
      1799      3047       0.0       0.0       0.0       0.01.00000E201.00000E20
*CONSTRAINED_SPOTWELD_ID
        95
      1803      3051       0.0       0.0       0.0       0.01.00000E201.00000E20
*CONSTRAINED_SPOTWELD_ID
        96
      1807      3055       0.0       0.0       0.0       0.01.00000E201.00000E20
*CONSTRAINED_SPOTWELD_ID
        97
      1811      3059       0.0       0.0       0.0       0.01.00000E201.00000E20
*END
