$# LS-DYNA Keyword file created by LS-PrePost(R) V4.5.15 - 08Mar2018
$# Created on Jun-21-2018 (12:53:35)
*KEYWORD  
*CONTROL_TERMINATION
$#  endtim    endcyc     dtmin    endeng    endmas     nosol     
       1.0         0       0.0       0.01.000000E8         0
*DATABASE_GLSTAT
$#      dt    binary      lcur     ioopt     
       0.1         0         0         1
*DATABASE_MATSUM
$#      dt    binary      lcur     ioopt     
       0.1         0         0         1
*DATABASE_NCFORC
$#      dt    binary      lcur     ioopt     
       0.1         0         0         1
*DATABASE_BINARY_D3PLOT
$#      dt      lcdt      beam     npltc    psetid      
       0.0         0         0        10         0
$#   ioopt     
         0
*BOUNDARY_SPC_SET
$#    nsid       cid      dofx      dofy      dofz     dofrx     dofry     dofrz
         1         0         1         1         1         1         1         1
*SET_NODE_LIST_TITLE
NODESET(SPC) 1
$#     sid       da1       da2       da3       da4    solver      
         1       0.0       0.0       0.0       0.0MECH
$#    nid1      nid2      nid3      nid4      nid5      nid6      nid7      nid8
         1         2         3         4         5         6         7         8
         9        10        11        12        13        14        15        16
        17        18        19        20        21       421       422       423
       424       425       426       427       428       429       430       431
       432       433       434       435       436       437       438       439
       440       441        42        63        84       105       126       147
       168       189       210       231       252       273       294       315
       336       357       378       399       420        22        43        64
        85       106       127       148       169       190       211       232
       253       274       295       316       337       358       379       400
*CONTACT_AUTOMATIC_ONE_WAY_SURFACE_TO_SURFACE_ID
$#     cid                                                                 title
         1Plate vs Ball
$#    ssid      msid     sstyp     mstyp    sboxid    mboxid       spr       mpr
         2         1         3         3         0         0         0         0
$#      fs        fd        dc        vc       vdc    penchk        bt        dt
       0.0       0.0       0.0       0.0       0.0         0       0.01.00000E20
$#     sfs       sfm       sst       mst      sfst      sfmt       fsf       vsf
       1.0       1.0       0.0       0.0       1.0       1.0       1.0       1.0
*PART
$#                                                                         title
Plate
$#     pid     secid       mid     eosid      hgid      grav    adpopt      tmid
         1         2         2         0         0         0         0         0
*SECTION_SHELL_TITLE
Shell for Plate
$#   secid    elform      shrf       nip     propt   qr/irid     icomp     setyp
         2         2       1.0         3       1.0         0         0         1
$#      t1        t2        t3        t4      nloc     marea      idof    edgset
     0.005     0.005     0.005     0.005       0.0       0.0       0.0         0
*MAT_PIECEWISE_LINEAR_PLASTICITY_TITLE
Plastic Plate
$#     mid        ro         e        pr      sigy      etan      fail      tdel
         2    7850.02.09000E11      0.295.000000E81.00000E101.00000E21       0.0
$#       c         p      lcss      lcsr        vp  
       0.0       0.0         0         0       0.0
$#    eps1      eps2      eps3      eps4      eps5      eps6      eps7      eps8
       0.0       0.0       0.0       0.0       0.0       0.0       0.0       0.0
$#     es1       es2       es3       es4       es5       es6       es7       es8
       0.0       0.0       0.0       0.0       0.0       0.0       0.0       0.0
*PART
$#                                                                         title
Ball
$#     pid     secid       mid     eosid      hgid      grav    adpopt      tmid
         2         1         1         0         0         0         0         0
*SECTION_SOLID_TITLE
Ball section
$#   secid    elform       aet   
         1         2         0
*MAT_ELASTIC_TITLE
Elastic Ball
$#     mid        ro         e        pr        da        db  not used        
         1    2580.07.20000E10       0.3       0.0       0.0         0
*INITIAL_VELOCITY_NODE
$#     nid        vx        vy        vz       vxr       vyr       vzr      icid
       442       0.0       0.0     -10.0       0.0       0.0       0.0         0
       443       0.0       0.0     -10.0       0.0       0.0       0.0         0
       444       0.0       0.0     -10.0       0.0       0.0       0.0         0
       445       0.0       0.0     -10.0       0.0       0.0       0.0         0
       446       0.0       0.0     -10.0       0.0       0.0       0.0         0
       447       0.0       0.0     -10.0       0.0       0.0       0.0         0
       448       0.0       0.0     -10.0       0.0       0.0       0.0         0
       449       0.0       0.0     -10.0       0.0       0.0       0.0         0
       450       0.0       0.0     -10.0       0.0       0.0       0.0         0
       451       0.0       0.0     -10.0       0.0       0.0       0.0         0
       452       0.0       0.0     -10.0       0.0       0.0       0.0         0
       453       0.0       0.0     -10.0       0.0       0.0       0.0         0
       454       0.0       0.0     -10.0       0.0       0.0       0.0         0
       455       0.0       0.0     -10.0       0.0       0.0       0.0         0
       456       0.0       0.0     -10.0       0.0       0.0       0.0         0
       457       0.0       0.0     -10.0       0.0       0.0       0.0         0
       458       0.0       0.0     -10.0       0.0       0.0       0.0         0
       459       0.0       0.0     -10.0       0.0       0.0       0.0         0
       460       0.0       0.0     -10.0       0.0       0.0       0.0         0
       461       0.0       0.0     -10.0       0.0       0.0       0.0         0
$ ... 956 like lines cut
*ELEMENT_SOLID
$#   eid     pid      n1      n2      n3      n4      n5      n6      n7      n8
     401       2     442     478     484     448     443     479     485     449
     402       2     443     479     485     449     444     480     486     450
     403       2     444     480     486     450     445     481     487     451
     404       2     445     481     487     451     446     482     488     452
     405       2     446     482     488     452     447     483     489     453
     406       2     448     484     490     454     449     485     491     455
     407       2     449     485     491     455     450     486     492     456
     408       2     450     486     492     456     451     487     493     457
     409       2     451     487     493     457     452     488     494     458
     410       2     452     488     494     458     453     489     495     459
     411       2     454     490     496     460     455     491     497     461
     412       2     455     491     497     461     456     492     498     462
     413       2     456     492     498     462     457     493     499     463
     414       2     457     493     499     463     458     494     500     464
     415       2     458     494     500     464     459     495     501     465
     416       2     460     496     502     466     461     497     503     467
     417       2     461     497     503     467     462     498     504     468
     418       2     462     498     504     468     463     499     505     469
     419       2     463     499     505     469     464     500     506     470
     420       2     464     500     506     470     465     501     507     471
$ ... 855 like lines cut
*ELEMENT_SHELL
$#   eid     pid      n1      n2      n3      n4      n5      n6      n7      n8
       1       1      22      23       2       1       0       0       0       0
       2       1      23      24       3       2       0       0       0       0
       3       1      24      25       4       3       0       0       0       0
       4       1      25      26       5       4       0       0       0       0
       5       1      26      27       6       5       0       0       0       0
       6       1      27      28       7       6       0       0       0       0
       7       1      28      29       8       7       0       0       0       0
       8       1      29      30       9       8       0       0       0       0
       9       1      30      31      10       9       0       0       0       0
      10       1      31      32      11      10       0       0       0       0
      11       1      32      33      12      11       0       0       0       0
      12       1      33      34      13      12       0       0       0       0
      13       1      34      35      14      13       0       0       0       0
      14       1      35      36      15      14       0       0       0       0
      15       1      36      37      16      15       0       0       0       0
      16       1      37      38      17      16       0       0       0       0
      17       1      38      39      18      17       0       0       0       0
      18       1      39      40      19      18       0       0       0       0
      19       1      40      41      20      19       0       0       0       0
      20       1      41      42      21      20       0       0       0       0
$ ... 380 like lines cut
*NODE
$#   nid               x               y               z      tc      rc  
       1           -10.0           -10.0             0.0       0       0
       2           -10.0            -9.0             0.0       0       0
       3           -10.0            -8.0             0.0       0       0
       4           -10.0            -7.0             0.0       0       0
       5           -10.0            -6.0             0.0       0       0
       6           -10.0            -5.0             0.0       0       0
       7           -10.0            -4.0             0.0       0       0
       8           -10.0            -3.0             0.0       0       0
       9           -10.0            -2.0             0.0       0       0
      10           -10.0      -0.9999995             0.0       0       0
      11           -10.0             0.0             0.0       0       0
      12           -10.0             1.0             0.0       0       0
      13           -10.0             2.0             0.0       0       0
      14           -10.0        3.000001             0.0       0       0
      15           -10.0             4.0             0.0       0       0
      16           -10.0             5.0             0.0       0       0
      17           -10.0             6.0             0.0       0       0
      18           -10.0             7.0             0.0       0       0
      19           -10.0             8.0             0.0       0       0
      20           -10.0             9.0             0.0       0       0
$ ... 1397 like lines cut
*END
