$# LS-DYNA Keyword file created by LS-PrePost(R) V4.5.15 - 08Mar2018
$# Created on Apr-07-2018 (21:52:44)
*KEYWORD
*TITLE
$#                                                                         title
LS-DYNA keyword deck by LS-PrePost
*CONTROL_TERMINATION
$#  endtim    endcyc     dtmin    endeng    endmas     nosol     
       1.0         0       0.0       0.01.000000E8         0
*DATABASE_GLSTAT
$#      dt    binary      lcur     ioopt     
      0.02         0         0         1
*DATABASE_MATSUM
$#      dt    binary      lcur     ioopt     
      0.02         0         0         1
*DATABASE_BINARY_D3PLOT
$#      dt      lcdt      beam     npltc    psetid      
       0.1         0         0         0         0
$#   ioopt     
         0
*BOUNDARY_SPC_SET
$#    nsid       cid      dofx      dofy      dofz     dofrx     dofry     dofrz
         2         0         1         1         1         1         1         1
*SET_NODE_LIST_TITLE
NODESET(SPC) 2
$#     sid       da1       da2       da3       da4    solver      
         2       0.0       0.0       0.0       0.0MECH
$#    nid1      nid2      nid3      nid4      nid5      nid6      nid7      nid8
      1688      1690      1691      1692      1693      1695      1696      1697
      1689      1694      1874      1875      1876      1877      1878      1879
      1880      1881      1882      1883       540       541       542       543
       544       545       546       547       548       549      2062      2063
      2064      2065      2066      2067      2068      2069      2070      2071
*LOAD_SEGMENT_ID
$#      id                                                               heading
         1                                                                      
$#    lcid        sf        at        n1        n2        n3        n4        n5
         11.000000E7       0.0      1118       684       834       676         0
*LOAD_SEGMENT_ID
$#      id                                                               heading
         2                                                                      
         11.000000E7       0.0       684      1119       890       834         0
*LOAD_SEGMENT_ID
$#      id                                                               heading
         3                                                                      
         11.000000E7       0.0      1119       682       785       890         0
*LOAD_SEGMENT_ID
$#      id                                                               heading
         4                                                                      
         11.000000E7       0.0       785      1132       682       682         0
*LOAD_SEGMENT_ID
$#      id                                                               heading
         5                                                                      
         11.000000E7       0.0      1132      1134       787       785         0
*LOAD_SEGMENT_ID
$#      id                                                               heading
         6                                                                      
         11.000000E7       0.0      1134       687       848       787         0
*LOAD_SEGMENT_ID
$#      id                                                               heading
         7                                                                      
         11.000000E7       0.0       687      1131      1154       848         0
*LOAD_SEGMENT_ID
$#      id                                                               heading
         8                                                                      
         11.000000E7       0.0      1211       707       836       699         0
*LOAD_SEGMENT_ID
$#      id                                                               heading
         9                                                                      
         11.000000E7       0.0       707       706       910       836         0
*LOAD_SEGMENT_ID
$#      id                                                               heading
        10                                                                      
         11.000000E7       0.0       706       705       791       910         0
*LOAD_SEGMENT_ID
$#      id                                                               heading
        11                                                                      
         11.000000E7       0.0       791       708       705       705         0
*LOAD_SEGMENT_ID
$#      id                                                               heading
        12                                                                      
         11.000000E7       0.0       708      1227       793       791         0
*LOAD_SEGMENT_ID
$#      id                                                               heading
        13                                                                      
         11.000000E7       0.0      1227      1226       820       793         0
*LOAD_SEGMENT_ID
$#      id                                                               heading
        14                                                                      
         11.000000E7       0.0      1226       994      1002       820         0
*LOAD_SEGMENT_ID
$#      id                                                               heading
        15                                                                      
         11.000000E7       0.0       937       939       808       444         0
*LOAD_SEGMENT_ID
$#      id                                                               heading
        16                                                                      
         11.000000E7       0.0       939       637       796       808         0
*LOAD_SEGMENT_ID
$#      id                                                               heading
        17                                                                      
         11.000000E7       0.0       637       936       797       796         0
*LOAD_SEGMENT_ID
$#      id                                                               heading
        18                                                                      
         11.000000E7       0.0       936       639       797       797         0
*LOAD_SEGMENT_ID
$#      id                                                               heading
        19                                                                      
         11.000000E7       0.0       639       642       799       797         0
*LOAD_SEGMENT_ID
$#      id                                                               heading
        20                                                                      
         11.000000E7       0.0       642       613       861       799         0
*LOAD_SEGMENT_ID
$#      id                                                               heading
        21                                                                      
         11.000000E7       0.0       613       611       367       861         0
*LOAD_SEGMENT_ID
$#      id                                                               heading
        22                                                                      
         11.000000E7       0.0      1042      1039       672       821         0
*LOAD_SEGMENT_ID
$#      id                                                               heading
        23                                                                      
         11.000000E7       0.0      1043      1042       821       891         0
*LOAD_SEGMENT_ID
$#      id                                                               heading
        24                                                                      
         11.000000E7       0.0      1041      1043       891       804         0
*LOAD_SEGMENT_ID
$#      id                                                               heading
        25                                                                      
         11.000000E7       0.0       804      1041      1024      1024         0
*LOAD_SEGMENT_ID
$#      id                                                               heading
        26                                                                      
         11.000000E7       0.0       660      1024       804       805         0
*LOAD_SEGMENT_ID
$#      id                                                               heading
        27                                                                      
         11.000000E7       0.0      1028       660       805       857         0
*LOAD_SEGMENT_ID
$#      id                                                               heading
        28                                                                      
         11.000000E7       0.0       952      1028       857       974         0
*LOAD_SEGMENT_ID
$#      id                                                               heading
        29                                                                      
         11.000000E7       0.0       443       444       808       807         0
*LOAD_SEGMENT_ID
$#      id                                                               heading
        30                                                                      
         11.000000E7       0.0       442       443       807       809         0
*LOAD_SEGMENT_ID
$#      id                                                               heading
        31                                                                      
         11.000000E7       0.0       441       442       809       810         0
*LOAD_SEGMENT_ID
$#      id                                                               heading
        32                                                                      
         11.000000E7       0.0       440       441       810       811         0
*LOAD_SEGMENT_ID
$#      id                                                               heading
        33                                                                      
         11.000000E7       0.0       630       440       811       812         0
*LOAD_SEGMENT_ID
$#      id                                                               heading
        34                                                                      
         11.000000E7       0.0       627       630       812       813         0
*LOAD_SEGMENT_ID
$#      id                                                               heading
        35                                                                      
         11.000000E7       0.0       813       862       997       996         0
*LOAD_SEGMENT_ID
$#      id                                                               heading
        36                                                                      
         11.000000E7       0.0       998       997       862       816         0
*LOAD_SEGMENT_ID
$#      id                                                               heading
        37                                                                      
         11.000000E7       0.0       999       998       816       817         0
*LOAD_SEGMENT_ID
$#      id                                                               heading
        38                                                                      
         11.000000E7       0.0       624       999       817       863         0
*LOAD_SEGMENT_ID
$#      id                                                               heading
        39                                                                      
         11.000000E7       0.0      1001       624       863       819         0
*LOAD_SEGMENT_ID
$#      id                                                               heading
        40                                                                      
         11.000000E7       0.0      1002      1001       819       820         0
*LOAD_SEGMENT_ID
$#      id                                                               heading
        41                                                                      
         11.000000E7       0.0       672       671       822       821         0
*LOAD_SEGMENT_ID
$#      id                                                               heading
        42                                                                      
         11.000000E7       0.0       671      1059       872       822         0
*LOAD_SEGMENT_ID
$#      id                                                               heading
        43                                                                      
         11.000000E7       0.0      1059       669       824       872         0
*LOAD_SEGMENT_ID
$#      id                                                               heading
        44                                                                      
         11.000000E7       0.0       669       668       825       824         0
*LOAD_SEGMENT_ID
$#      id                                                               heading
        45                                                                      
         11.000000E7       0.0       668       667       826       825         0
*LOAD_SEGMENT_ID
$#      id                                                               heading
        46                                                                      
         11.000000E7       0.0       667      1055       827       826         0
*LOAD_SEGMENT_ID
$#      id                                                               heading
        47                                                                      
         11.000000E7       0.0       829       827      1055       674         0
*LOAD_SEGMENT_ID
$#      id                                                               heading
        48                                                                      
         11.000000E7       0.0       681       680       830       829         0
*LOAD_SEGMENT_ID
$#      id                                                               heading
        49                                                                      
         11.000000E7       0.0       680       679       831       830         0
*LOAD_SEGMENT_ID
$#      id                                                               heading
        50                                                                      
         11.000000E7       0.0       679       678       832       831         0
*LOAD_SEGMENT_ID
$#      id                                                               heading
        51                                                                      
         11.000000E7       0.0       678       677       833       832         0
*LOAD_SEGMENT_ID
$#      id                                                               heading
        52                                                                      
         11.000000E7       0.0       677       676       834       833         0
*LOAD_SEGMENT_ID
$#      id                                                               heading
        53                                                                      
         11.000000E7       0.0       700       699       836       835         0
*LOAD_SEGMENT_ID
$#      id                                                               heading
        54                                                                      
         11.000000E7       0.0       701       700       835       837         0
*LOAD_SEGMENT_ID
$#      id                                                               heading
        55                                                                      
         11.000000E7       0.0       702       701       837       838         0
*LOAD_SEGMENT_ID
$#      id                                                               heading
        56                                                                      
         11.000000E7       0.0       703       702       838       839         0
*LOAD_SEGMENT_ID
$#      id                                                               heading
        57                                                                      
         11.000000E7       0.0      1202       703       839       840         0
*LOAD_SEGMENT_ID
$#      id                                                               heading
        58                                                                      
         11.000000E7       0.0       696      1202       840       841         0
*LOAD_SEGMENT_ID
$#      id                                                               heading
        59                                                                      
         11.000000E7       0.0       841       843      1149       689         0
*LOAD_SEGMENT_ID
$#      id                                                               heading
        60                                                                      
         11.000000E7       0.0      1150      1149       843       844         0
*LOAD_SEGMENT_ID
$#      id                                                               heading
        61                                                                      
         11.000000E7       0.0      1151      1150       844       845         0
*LOAD_SEGMENT_ID
$#      id                                                               heading
        62                                                                      
         11.000000E7       0.0       693      1151       845       846         0
*LOAD_SEGMENT_ID
$#      id                                                               heading
        63                                                                      
         11.000000E7       0.0      1153       693       846       847         0
*LOAD_SEGMENT_ID
$#      id                                                               heading
        64                                                                      
         11.000000E7       0.0      1154      1153       847       848         0
*LOAD_SEGMENT_ID
$#      id                                                               heading
        65                                                                      
         11.000000E7       0.0       849       366       651       650         0
*LOAD_SEGMENT_ID
$#      id                                                               heading
        66                                                                      
         11.000000E7       0.0       650       979       850       849         0
*LOAD_SEGMENT_ID
$#      id                                                               heading
        67                                                                      
         11.000000E7       0.0       372       366       849       851         0
*LOAD_SEGMENT_ID
$#      id                                                               heading
        68                                                                      
         11.000000E7       0.0       979       978       852       850         0
*LOAD_SEGMENT_ID
$#      id                                                               heading
        69                                                                      
         11.000000E7       0.0       648       372       851       853         0
*LOAD_SEGMENT_ID
$#      id                                                               heading
        70                                                                      
         11.000000E7       0.0       978       977       854       852         0
*LOAD_SEGMENT_ID
$#      id                                                               heading
        71                                                                      
         11.000000E7       0.0       977       655       855       854         0
*LOAD_SEGMENT_ID
$#      id                                                               heading
        72                                                                      
         11.000000E7       0.0       655       975       856       855         0
*LOAD_SEGMENT_ID
$#      id                                                               heading
        73                                                                      
         11.000000E7       0.0       975       974       857       856         0
*LOAD_SEGMENT_ID
$#      id                                                               heading
        74                                                                      
         11.000000E7       0.0       370       648       853       858         0
*LOAD_SEGMENT_ID
$#      id                                                               heading
        75                                                                      
         11.000000E7       0.0       369       370       858       859         0
*LOAD_SEGMENT_ID
$#      id                                                               heading
        76                                                                      
         11.000000E7       0.0       645       369       859       860         0
*LOAD_SEGMENT_ID
$#      id                                                               heading
        77                                                                      
         11.000000E7       0.0       367       645       860       861         0
*LOAD_SEGMENT_ID
$#      id                                                               heading
        78                                                                      
         11.000000E7       0.0       768       771       850       852         0
*LOAD_SEGMENT_ID
$#      id                                                               heading
        79                                                                      
         11.000000E7       0.0       849       850       771       851         0
*LOAD_SEGMENT_ID
$#      id                                                               heading
        80                                                                      
         11.000000E7       0.0       851       771       770       853         0
*LOAD_SEGMENT_ID
$#      id                                                               heading
        81                                                                      
         11.000000E7       0.0       853       770       769       858         0
*LOAD_SEGMENT_ID
$#      id                                                               heading
        82                                                                      
         11.000000E7       0.0       760       763       840       839         0
*LOAD_SEGMENT_ID
$#      id                                                               heading
        83                                                                      
         11.000000E7       0.0       753       751       816       862         0
*LOAD_SEGMENT_ID
$#      id                                                               heading
        84                                                                      
         11.000000E7       0.0       754       753       812       811         0
*LOAD_SEGMENT_ID
$#      id                                                               heading
        85                                                                      
         11.000000E7       0.0       753       862       813       812         0
*LOAD_SEGMENT_ID
$#      id                                                               heading
        86                                                                      
         11.000000E7       0.0       813       996       628       627         0
*LOAD_SEGMENT_ID
$#      id                                                               heading
        87                                                                      
         11.000000E7       0.0       754       811       810       755         0
*LOAD_SEGMENT_ID
$#      id                                                               heading
        88                                                                      
         11.000000E7       0.0       758       757       864       863         0
*LOAD_SEGMENT_ID
$#      id                                                               heading
        89                                                                      
         11.000000E7       0.0       751       758       863       817         0
*LOAD_SEGMENT_ID
$#      id                                                               heading
        90                                                                      
         11.000000E7       0.0       816       751       817       817         0
*LOAD_SEGMENT_ID
$#      id                                                               heading
        91                                                                      
         11.000000E7       0.0       765       764       866       865         0
*LOAD_SEGMENT_ID
$#      id                                                               heading
        92                                                                      
         11.000000E7       0.0       766       765       865       867         0
*LOAD_SEGMENT_ID
$#      id                                                               heading
        93                                                                      
         11.000000E7       0.0       775       824       825       825         0
*LOAD_SEGMENT_ID
$#      id                                                               heading
        94                                                                      
         11.000000E7       0.0       777       826       827       829         0
*LOAD_SEGMENT_ID
$#      id                                                               heading
        95                                                                      
         11.000000E7       0.0       778       777       829       830         0
*LOAD_SEGMENT_ID
$#      id                                                               heading
        96                                                                      
         11.000000E7       0.0       829       681       673       674         0
*LOAD_SEGMENT_ID
$#      id                                                               heading
        97                                                                      
         11.000000E7       0.0       778       830       831       779         0
*LOAD_SEGMENT_ID
$#      id                                                               heading
        98                                                                      
         11.000000E7       0.0       773       772       870       869         0
*LOAD_SEGMENT_ID
$#      id                                                               heading
        99                                                                      
         11.000000E7       0.0       774       773       869       871         0
*LOAD_SEGMENT_ID
$#      id                                                               heading
       100                                                                      
         11.000000E7       0.0       762       761       845       844         0
*LOAD_SEGMENT_ID
$#      id                                                               heading
       101                                                                      
         11.000000E7       0.0       763       762       844       843         0
*LOAD_SEGMENT_ID
$#      id                                                               heading
       102                                                                      
         11.000000E7       0.0       840       763       843       841         0
*LOAD_SEGMENT_ID
$#      id                                                               heading
       103                                                                      
         11.000000E7       0.0       841       689       697       696         0
*LOAD_SEGMENT_ID
$#      id                                                               heading
       104                                                                      
         11.000000E7       0.0       782       781       873       872         0
*LOAD_SEGMENT_ID
$#      id                                                               heading
       105                                                                      
         11.000000E7       0.0       775       782       872       824         0
*LOAD_SEGMENT_ID
$#      id                                                               heading
       106                                                                      
         11.000000E7       0.0       780       776       875       874         0
*LOAD_SEGMENT_ID
$#      id                                                               heading
       107                                                                      
         11.000000E7       0.0       781       780       874       876         0
*LOAD_SEGMENT_ID
$#      id                                                               heading
       108                                                                      
         11.000000E7       0.0       756       752       878       877         0
*LOAD_SEGMENT_ID
$#      id                                                               heading
       109                                                                      
         11.000000E7       0.0       757       756       877       879         0
*LOAD_SEGMENT_ID
$#      id                                                               heading
       110                                                                      
         11.000000E7       0.0       759       766       881       880         0
*LOAD_SEGMENT_ID
$#      id                                                               heading
       111                                                                      
         11.000000E7       0.0       761       759       880       882         0
*LOAD_SEGMENT_ID
$#      id                                                               heading
       112                                                                      
         11.000000E7       0.0       845       761       882       846         0
*LOAD_SEGMENT_ID
$#      id                                                               heading
       113                                                                      
         11.000000E7       0.0       883       752       755       810         0
*LOAD_SEGMENT_ID
$#      id                                                               heading
       114                                                                      
         11.000000E7       0.0       837       866       764       838         0
*LOAD_SEGMENT_ID
$#      id                                                               heading
       115                                                                      
         11.000000E7       0.0       760       839       838       764         0
*LOAD_SEGMENT_ID
$#      id                                                               heading
       116                                                                      
         11.000000E7       0.0       769       767       885       884         0
*LOAD_SEGMENT_ID
$#      id                                                               heading
       117                                                                      
         11.000000E7       0.0       737       736       874       875         0
*LOAD_SEGMENT_ID
$#      id                                                               heading
       118                                                                      
         11.000000E7       0.0       736       735       876       874         0
*LOAD_SEGMENT_ID
$#      id                                                               heading
       119                                                                      
         11.000000E7       0.0       738       737       875       886         0
*LOAD_SEGMENT_ID
$#      id                                                               heading
       120                                                                      
         11.000000E7       0.0       739       738       886       887         0
*LOAD_SEGMENT_ID
$#      id                                                               heading
       121                                                                      
         11.000000E7       0.0       735       734       923       876         0
*LOAD_SEGMENT_ID
$#      id                                                               heading
       122                                                                      
         11.000000E7       0.0       734       733       889       923         0
*LOAD_SEGMENT_ID
$#      id                                                               heading
       123                                                                      
         11.000000E7       0.0       740       739       887       890         0
*LOAD_SEGMENT_ID
$#      id                                                               heading
       124                                                                      
         11.000000E7       0.0       741       740       890       785         0
*LOAD_SEGMENT_ID
$#      id                                                               heading
       125                                                                      
         11.000000E7       0.0       733       732       891       889         0
*LOAD_SEGMENT_ID
$#      id                                                               heading
       126                                                                      
         11.000000E7       0.0       732       712       804       891         0
*LOAD_SEGMENT_ID
$#      id                                                               heading
       127                                                                      
         11.000000E7       0.0       781       876       923       873         0
*LOAD_SEGMENT_ID
$#      id                                                               heading
       128                                                                      
         11.000000E7       0.0       805       804       712       731         0
*LOAD_SEGMENT_ID
$#      id                                                               heading
       129                                                                      
         11.000000E7       0.0       787       742       741       785         0
*LOAD_SEGMENT_ID
$#      id                                                               heading
       130                                                                      
         11.000000E7       0.0       767       774       894       885         0
*LOAD_SEGMENT_ID
$#      id                                                               heading
       131                                                                      
         11.000000E7       0.0       805       731       730       896         0
*LOAD_SEGMENT_ID
$#      id                                                               heading
       132                                                                      
         11.000000E7       0.0       730       729       897       896         0
*LOAD_SEGMENT_ID
$#      id                                                               heading
       133                                                                      
         11.000000E7       0.0       729       728       869       897         0
*LOAD_SEGMENT_ID
$#      id                                                               heading
       134                                                                      
         11.000000E7       0.0       869       728       727       871         0
*LOAD_SEGMENT_ID
$#      id                                                               heading
       135                                                                      
         11.000000E7       0.0       871       727       894       774         0
*LOAD_SEGMENT_ID
$#      id                                                               heading
       136                                                                      
         11.000000E7       0.0       727       726       898       894         0
*LOAD_SEGMENT_ID
$#      id                                                               heading
       137                                                                      
         11.000000E7       0.0       726       725       899       898         0
*LOAD_SEGMENT_ID
$#      id                                                               heading
       138                                                                      
         11.000000E7       0.0       725       724       900       899         0
*LOAD_SEGMENT_ID
$#      id                                                               heading
       139                                                                      
         11.000000E7       0.0       724       723       799       900         0
*LOAD_SEGMENT_ID
$#      id                                                               heading
       140                                                                      
         11.000000E7       0.0       723       722       797       799         0
*LOAD_SEGMENT_ID
$#      id                                                               heading
       141                                                                      
         11.000000E7       0.0       796       797       722       721         0
*LOAD_SEGMENT_ID
$#      id                                                               heading
       142                                                                      
         11.000000E7       0.0       885       894       898       899         0
*LOAD_SEGMENT_ID
$#      id                                                               heading
       143                                                                      
         11.000000E7       0.0       787       903       743       742         0
*LOAD_SEGMENT_ID
$#      id                                                               heading
       144                                                                      
         11.000000E7       0.0       744       743       903       905         0
*LOAD_SEGMENT_ID
$#      id                                                               heading
       145                                                                      
         11.000000E7       0.0       745       744       905       906         0
*LOAD_SEGMENT_ID
$#      id                                                               heading
       146                                                                      
         11.000000E7       0.0       746       745       906       881         0
*LOAD_SEGMENT_ID
$#      id                                                               heading
       147                                                                      
         11.000000E7       0.0       746       867       747       747         0
*LOAD_SEGMENT_ID
$#      id                                                               heading
       148                                                                      
         11.000000E7       0.0       881       766       867       746         0
*LOAD_SEGMENT_ID
$#      id                                                               heading
       149                                                                      
         11.000000E7       0.0       747       867       865       907         0
*LOAD_SEGMENT_ID
$#      id                                                               heading
       150                                                                      
         11.000000E7       0.0       748       747       907       907         0
*LOAD_SEGMENT_ID
$#      id                                                               heading
       151                                                                      
         11.000000E7       0.0       749       748       907       908         0
*LOAD_SEGMENT_ID
$#      id                                                               heading
       152                                                                      
         11.000000E7       0.0       750       749       908       910         0
*LOAD_SEGMENT_ID
$#      id                                                               heading
       153                                                                      
         11.000000E7       0.0       711       750       910       791         0
*LOAD_SEGMENT_ID
$#      id                                                               heading
       154                                                                      
         11.000000E7       0.0       910       908       927       836         0
*LOAD_SEGMENT_ID
$#      id                                                               heading
       155                                                                      
         11.000000E7       0.0       793       713       711       791         0
*LOAD_SEGMENT_ID
$#      id                                                               heading
       156                                                                      
         11.000000E7       0.0       796       721       720       913         0
*LOAD_SEGMENT_ID
$#      id                                                               heading
       157                                                                      
         11.000000E7       0.0       720       719       914       913         0
*LOAD_SEGMENT_ID
$#      id                                                               heading
       158                                                                      
         11.000000E7       0.0       719       718       878       914         0
*LOAD_SEGMENT_ID
$#      id                                                               heading
       159                                                                      
         11.000000E7       0.0       718       717       877       878         0
*LOAD_SEGMENT_ID
$#      id                                                               heading
       160                                                                      
         11.000000E7       0.0       717       716       879       877         0
*LOAD_SEGMENT_ID
$#      id                                                               heading
       161                                                                      
         11.000000E7       0.0       716       715       915       879         0
*LOAD_SEGMENT_ID
$#      id                                                               heading
       162                                                                      
         11.000000E7       0.0       715       714       916       915         0
*LOAD_SEGMENT_ID
$#      id                                                               heading
       163                                                                      
         11.000000E7       0.0       793       916       714       713         0
*LOAD_SEGMENT_ID
$#      id                                                               heading
       164                                                                      
         11.000000E7       0.0       757       879       915       864         0
*LOAD_SEGMENT_ID
$#      id                                                               heading
       165                                                                      
         11.000000E7       0.0       881       906       905       880         0
*LOAD_SEGMENT_ID
$#      id                                                               heading
       166                                                                      
         11.000000E7       0.0       854       855       870       772         0
*LOAD_SEGMENT_ID
$#      id                                                               heading
       167                                                                      
         11.000000E7       0.0       854       772       768       852         0
*LOAD_SEGMENT_ID
$#      id                                                               heading
       168                                                                      
         11.000000E7       0.0       855       856       919       870         0
*LOAD_SEGMENT_ID
$#      id                                                               heading
       169                                                                      
         11.000000E7       0.0       869       870       919       897         0
*LOAD_SEGMENT_ID
$#      id                                                               heading
       170                                                                      
         11.000000E7       0.0       819       863       864       921         0
*LOAD_SEGMENT_ID
$#      id                                                               heading
       171                                                                      
         11.000000E7       0.0       769       884       859       858         0
*LOAD_SEGMENT_ID
$#      id                                                               heading
       172                                                                      
         11.000000E7       0.0       860       859       884       922         0
*LOAD_SEGMENT_ID
$#      id                                                               heading
       173                                                                      
         11.000000E7       0.0       884       885       899       922         0
*LOAD_SEGMENT_ID
$#      id                                                               heading
       174                                                                      
         11.000000E7       0.0       752       883       914       878         0
*LOAD_SEGMENT_ID
$#      id                                                               heading
       175                                                                      
         11.000000E7       0.0       873       923       821       822         0
*LOAD_SEGMENT_ID
$#      id                                                               heading
       176                                                                      
         11.000000E7       0.0       891       821       923       889         0
*LOAD_SEGMENT_ID
$#      id                                                               heading
       177                                                                      
         11.000000E7       0.0       820       819       921       924         0
*LOAD_SEGMENT_ID
$#      id                                                               heading
       178                                                                      
         11.000000E7       0.0       793       820       924       916         0
*LOAD_SEGMENT_ID
$#      id                                                               heading
       179                                                                      
         11.000000E7       0.0       883       807       809       810         0
*LOAD_SEGMENT_ID
$#      id                                                               heading
       180                                                                      
         11.000000E7       0.0       921       864       915       924         0
*LOAD_SEGMENT_ID
$#      id                                                               heading
       181                                                                      
         11.000000E7       0.0       776       779       925       925         0
*LOAD_SEGMENT_ID
$#      id                                                               heading
       182                                                                      
         11.000000E7       0.0       875       776       925       886         0
*LOAD_SEGMENT_ID
$#      id                                                               heading
       183                                                                      
         11.000000E7       0.0       865       866       926       907         0
*LOAD_SEGMENT_ID
$#      id                                                               heading
       184                                                                      
         11.000000E7       0.0       908       907       926       927         0
*LOAD_SEGMENT_ID
$#      id                                                               heading
       185                                                                      
         11.000000E7       0.0       861       860       922       928         0
*LOAD_SEGMENT_ID
$#      id                                                               heading
       186                                                                      
         11.000000E7       0.0       799       861       928       900         0
*LOAD_SEGMENT_ID
$#      id                                                               heading
       187                                                                      
         11.000000E7       0.0       856       857       929       919         0
*LOAD_SEGMENT_ID
$#      id                                                               heading
       188                                                                      
         11.000000E7       0.0       857       805       896       929         0
*LOAD_SEGMENT_ID
$#      id                                                               heading
       189                                                                      
         11.000000E7       0.0       808       796       913       930         0
*LOAD_SEGMENT_ID
$#      id                                                               heading
       190                                                                      
         11.000000E7       0.0       913       914       883       930         0
*LOAD_SEGMENT_ID
$#      id                                                               heading
       191                                                                      
         11.000000E7       0.0       787       848       932       903         0
*LOAD_SEGMENT_ID
$#      id                                                               heading
       192                                                                      
         11.000000E7       0.0       905       903       932       880         0
*LOAD_SEGMENT_ID
$#      id                                                               heading
       193                                                                      
         11.000000E7       0.0       848       847       933       932         0
*LOAD_SEGMENT_ID
$#      id                                                               heading
       194                                                                      
         11.000000E7       0.0       847       846       882       933         0
*LOAD_SEGMENT_ID
$#      id                                                               heading
       195                                                                      
         11.000000E7       0.0       807       808       930       883         0
*LOAD_SEGMENT_ID
$#      id                                                               heading
       196                                                                      
         11.000000E7       0.0       880       932       933       882         0
*LOAD_SEGMENT_ID
$#      id                                                               heading
       197                                                                      
         11.000000E7       0.0       928       922       899       900         0
*LOAD_SEGMENT_ID
$#      id                                                               heading
       198                                                                      
         11.000000E7       0.0       919       929       896       897         0
*LOAD_SEGMENT_ID
$#      id                                                               heading
       199                                                                      
         11.000000E7       0.0       822       872       873       873         0
*LOAD_SEGMENT_ID
$#      id                                                               heading
       200                                                                      
         11.000000E7       0.0       916       924       915       915         0
*LOAD_SEGMENT_ID
$#      id                                                               heading
       201                                                                      
         11.000000E7       0.0       835       926       866       837         0
*LOAD_SEGMENT_ID
$#      id                                                               heading
       202                                                                      
         11.000000E7       0.0       835       836       927       926         0
*LOAD_SEGMENT_ID
$#      id                                                               heading
       203                                                                      
         11.000000E7       0.0       779       831       832       925         0
*LOAD_SEGMENT_ID
$#      id                                                               heading
       204                                                                      
         11.000000E7       0.0       832       833       934       925         0
*LOAD_SEGMENT_ID
$#      id                                                               heading
       205                                                                      
         11.000000E7       0.0       833       834       935       934         0
*LOAD_SEGMENT_ID
$#      id                                                               heading
       206                                                                      
         11.000000E7       0.0       834       890       887       935         0
*LOAD_SEGMENT_ID
$#      id                                                               heading
       207                                                                      
         11.000000E7       0.0       935       887       886       886         0
*LOAD_SEGMENT_ID
$#      id                                                               heading
       208                                                                      
         11.000000E7       0.0       886       925       934       935         0
*LOAD_SEGMENT_ID
$#      id                                                               heading
       209                                                                      
         11.000000E7       0.0       825       826       777       775         0
*PART
$#                                                                         title
LSHELL1
$#     pid     secid       mid     eosid      hgid      grav    adpopt      tmid
         1         1         1         0         0         0         0         0
*SECTION_SHELL
$#   secid    elform      shrf       nip     propt   qr/irid     icomp     setyp
         1         2       1.0         2       1.0         0         0         1
$#      t1        t2        t3        t4      nloc     marea      idof    edgset
     0.002     0.002     0.002     0.002       0.0       0.0       0.0         0
*MAT_ELASTIC
$#     mid        ro         e        pr        da        db  not used        
         1    2580.07.20000E10       0.3       0.0       0.0         0
*DEFINE_CURVE
$#    lcid      sidr       sfa       sfo      offa      offo    dattyp     lcint
         1         0       1.0       1.0       0.0       0.0         0         0
$#                a1                  o1  
                 0.0                 0.0
                 1.0                 1.0
                 1.1                 1.0
*SET_NODE_LIST_TITLE
NODESET(SPC) 1
$#     sid       da1       da2       da3       da4    solver      
         1       0.0       0.0       0.0       0.0MECH
$#    nid1      nid2      nid3      nid4      nid5      nid6      nid7      nid8
      1688      1689      1690      1691      1692      1693      1694      1695
      1696      1697         0         0         0         0         0         0
*ELEMENT_SHELL
$#   eid     pid      n1      n2      n3      n4      n5      n6      n7      n8
       1       1      20       4      40       1       0       0       0       0
       2       1      11      13      50       3       0       0       0       0
       3       1      19      42       4      20       0       0       0       0
       4       1      10      72      13      11       0       0       0       0
       5       1      76      43      42      19       0       0       0       0
       6       1      46      15      72      10       0       0       0       0
       7       1      17       7      43      76       0       0       0       0
       8       1      45      74      15      46       0       0       0       0
       9       1      74      45       7      17       0       0       0       0
      10       1      28     103       1      40       0       0       0       0
      11       1      24      27      25     101       0       0       0       0
      12       1      27      24     103      28       0       0       0       0
      13       1       4      31     126      40       0       0       0       0
      14       1      38      11       3     106       0       0       0       0
      15       1     135      10      11      38       0       0       0       0
      16       1      42     130      31       4       0       0       0       0
      17       1      43     131     130      42       0       0       0       0
      18       1      36      46      10     135       0       0       0       0
      19       1       7      34     131      43       0       0       0       0
      20       1     133      45      46      36       0       0       0       0
$ ... 1397 like lines cut
*NODE
$#   nid               x               y               z      tc      rc  
       1    5.000000e-04        0.029628       0.0211739       0       0
       3   -5.000000e-04        0.038802        0.005884       0       0
       4   -5.000000e-04       0.0306473       0.0194751       0       0
       7   -5.000000e-04       0.0337053       0.0143784       0       0
      10   -5.000000e-04       0.0367633       0.0092818       0       0
      11   -5.000000e-04       0.0377826       0.0075829       0       0
      13    5.000000e-04       0.0377826       0.0075829       0       0
      15    5.000000e-04        0.035744       0.0109807       0       0
      17    5.000000e-04       0.0337053       0.0143784       0       0
      19    5.000000e-04       0.0316667       0.0177762       0       0
      20    5.000000e-04       0.0306473       0.0194751       0       0
      24    5.000000e-04       0.0274712       0.0238234       0       0
      25   -5.000000e-04       0.0261324       0.0248913       0       0
      27   -5.000000e-04       0.0274712       0.0238234       0       0
      28   -5.000000e-04       0.0286444       0.0225758       0       0
      31         -0.0021       0.0299613       0.0190635       0       0
      34         -0.0021       0.0330193       0.0139668       0       0
      36         -0.0021        0.035058       0.0105691       0       0
      38         -0.0021       0.0370966       0.0071713       0       0
      40   -5.000000e-04        0.029628        0.021174       0       0
$ ... 1521 like lines cut
*END
