$# LS-DYNA Keyword file created by LS-PrePost(R) V4.5.15 - 08Mar2018
$ Created by BW Lee, Copyright@BW Engineering 2018
$# Created on Jun-23-2018 (18:21:49)
*KEYWORD
*TITLE
$#                                                                         title
LS-DYNA keyword deck by LS-PrePost
*CONTROL_TERMINATION
$#  endtim    endcyc     dtmin    endeng    endmas     nosol     
     0.002         0       0.0       0.01.000000E8         0
*DATABASE_GLSTAT
$#      dt    binary      lcur     ioopt     
1.00000E-4         0         0         1
*DATABASE_MATSUM
$#      dt    binary      lcur     ioopt     
1.00000E-4         0         0         1
*DATABASE_RCFORC
$#      dt    binary      lcur     ioopt     
1.00000E-4         0         0         1
*DATABASE_BINARY_D3PLOT
$#      dt      lcdt      beam     npltc    psetid      
       0.0         0         0        50         0
$#   ioopt     
         0
*DATABASE_EXTENT_BINARY
$#   neiph     neips    maxint    strflg    sigflg    epsflg    rltflg    engflg
         0         2         3         0         1         1         1         1
$#  cmpflg    ieverp    beamip     dcomp      shge     stssz    n3thdt   ialemat
         1         0         0         1         1         1         2         1
$# nintsld   pkp_sen      sclp     hydro     msscl     therm    intout    nodout
         0         0       1.0         0         0         0           
$#    dtdt    resplt     neipb     quadr     cubic     
         0         0         0         0         0
*BOUNDARY_SPC_SET
$#    nsid       cid      dofx      dofy      dofz     dofrx     dofry     dofrz
         1         0         1         1         1         1         1         1
*SET_NODE_LIST_TITLE
NODESET(SPC) 1
$#     sid       da1       da2       da3       da4    solver      
         1       0.0       0.0       0.0       0.0MECH
$#    nid1      nid2      nid3      nid4      nid5      nid6      nid7      nid8
     29829     29830     29869     29870     29881     29882     29956     29957
     30017     30018     30104     30105     30187     30188     30223     30224
     30309     30310     30311     30312     30335     30336     30343     30344
     30548     30549     30550     30551     30552     30733     30734     30735
     30736     30737     30785     30786     30787     30788     30789     31155
     31156     31157     31158     31159     31418     31419     31420     31421
     31422     31837     31838     31839     31840     31841     32186     32187
     32188     32189     32190     32382     32383     32384     32385     32386
     32894     32895     32896     32897     32898     32907     32908     32909
     32910     32911     33097     33098     33099     33100     33101     33139
     33140     33141     33142     33143     33447     33448     33449     33450
     33451     33452     33453     33454     33455     33456     33457     33458
     33459     33460     33461     33462     33483     33484     33485     33486
     33565     33566     33567     33568     33569     33570     33571     33572
     33573     33574     33575     33576     33577     33578     33579     33580
     33581     33582     33583     33584     33599     33600     33601     33602
     33647     33648     33649     33650     33651     33652     33653     33654
     33655     33656     33657     33658     33659     33660     33661     33662
     33663     33664     33665     33666     33677     33678     33679     33680
     33681     33682     33683     33684     33707     33708     33709     33710
$ ... 23 like lines cut
*CONTACT_AUTOMATIC_SURFACE_TO_SURFACE_ID
$#     cid                                                                 title
         1                                                                      
$#    ssid      msid     sstyp     mstyp    sboxid    mboxid       spr       mpr
         5         1         3         0         0         0         0         0
$#      fs        fd        dc        vc       vdc    penchk        bt        dt
       0.0       0.0       0.0       0.0       0.0         0       0.01.00000E20
$#     sfs       sfm       sst       mst      sfst      sfmt       fsf       vsf
       1.0       1.0       0.0       0.0       1.0       1.0       1.0       1.0
*SET_SEGMENT
$#     sid       da1       da2       da3       da4    solver      
         1       0.0       0.0       0.0       0.0MECH
$#      n1        n2        n3        n4        a1        a2        a3        a4
     37791     33354     33355     33355       0.0       0.0       0.0       0.0
     39639     33355     33354     33354       0.0       0.0       0.0       0.0
     37776     37779     37775     37778       0.0       0.0       0.0       0.0
     37265     37266     37268     37267       0.0       0.0       0.0       0.0
     34072     30639     29849     30640       0.0       0.0       0.0       0.0
     30639     34121     30686     29849       0.0       0.0       0.0       0.0
     34132     30639     29849     30689       0.0       0.0       0.0       0.0
     41124     41121     41125     33437       0.0       0.0       0.0       0.0
     34064     30635     30636     34066       0.0       0.0       0.0       0.0
     30635     34113     34115     30636       0.0       0.0       0.0       0.0
     34124     30635     30636     34126       0.0       0.0       0.0       0.0
     37797     37794     37798     33358       0.0       0.0       0.0       0.0
     29849     30686     39439     30640       0.0       0.0       0.0       0.0
     29849     30640     39586     30689       0.0       0.0       0.0       0.0
     34066     30636     30637     34068       0.0       0.0       0.0       0.0
     30636     34115     34117     30637       0.0       0.0       0.0       0.0
     34126     30636     30637     34128       0.0       0.0       0.0       0.0
     37267     37268     37270     37269       0.0       0.0       0.0       0.0
     30642     34071     30641     29850       0.0       0.0       0.0       0.0
     39437     29850     30641     39440       0.0       0.0       0.0       0.0
$ ... 1993 like lines cut
*PART
$#                                                                         title
Core
$#     pid     secid       mid     eosid      hgid      grav    adpopt      tmid
         1         1         2         0         0         0         0         0
*SECTION_SHELL_TITLE
Core
$#   secid    elform      shrf       nip     propt   qr/irid     icomp     setyp
         1         2       1.0         2       1.0         0         0         1
$#      t1        t2        t3        t4      nloc     marea      idof    edgset
     0.001     0.001     0.001     0.001       0.0       0.0       0.0         0
*MAT_PIECEWISE_LINEAR_PLASTICITY_TITLE
Al_core
$#     mid        ro         e        pr      sigy      etan      fail      tdel
         2   25000.07.20000E10       0.36.000000E81.000000E9     0.045       0.0
$#       c         p      lcss      lcsr        vp  
       0.0       0.0         0         0       0.0
$#    eps1      eps2      eps3      eps4      eps5      eps6      eps7      eps8
       0.0       0.0       0.0       0.0       0.0       0.0       0.0       0.0
$#     es1       es2       es3       es4       es5       es6       es7       es8
       0.0       0.0       0.0       0.0       0.0       0.0       0.0       0.0
*PART
$#                                                                         title
Blade
$#     pid     secid       mid     eosid      hgid      grav    adpopt      tmid
         5         2         3         0         0         0         0         0
*SECTION_SOLID_TITLE
Blade
$#   secid    elform       aet   
         2        16         0
*MAT_RIGID_TITLE
Blade
$#     mid        ro         e        pr         n    couple         m     alias
         3    4500.01.08000E11      0.33       0.0       0.0       0.0          
$#     cmo      con1      con2    
       0.0         0         0
$#lco or a1        a2        a3        v1        v2        v3  
       0.0       0.0       0.0       0.0       0.0       0.0
*PART_COMPOSITE
$#                                                                         title
TopSheet
$#     pid    elform      shrf      nloc     marea      hgid    adpopt  ithelfrm
        12         2       0.0       0.0       0.0         0         0         0
$#    mid1    thick1        b1     tmid1      mid2    thick2        b2     tmid2
         1     0.001       0.0         0         1     0.001      90.0         0
         1     0.001      45.0         0         1     0.001     -45.0         0
*PART_COMPOSITE
$#                                                                         title
BottomSheet
$#     pid    elform      shrf      nloc     marea      hgid    adpopt  ithelfrm
        13         2       0.0       0.0       0.0         0         0         0
$#    mid1    thick1        b1     tmid1      mid2    thick2        b2     tmid2
         1     0.001       0.0         0         1     0.001      90.0         0
         1     0.001      45.0         0         1     0.001     -45.0         0
*MAT_COMPOSITE_DAMAGE_TITLE
GrEP
$#     mid        ro        ea        eb        ec      prba      prca      prcb
         1    1450.01.30000E114.50000E104.50000E10      0.15      0.15      0.25
$#     gab       gbc       gca     kfail      aopt      macf    atrack      
8.000000E98.000000E98.000000E9       0.0       2.0         1         0
$#      xp        yp        zp        a1        a2        a3  
       0.0       0.0       0.0       1.0       0.0       0.0
$#      v1        v2        v3        d1        d2        d3      beta    
       0.0       0.0       0.0       0.0       1.0       0.0       0.0
$#      sc        xt        yt        yc      alph        sn       syz       szx
1.200000E82.500000E92.500000E82.500000E7       0.0       0.0       0.0       0.0
*INITIAL_VELOCITY_NODE
$#     nid        vx        vy        vz       vxr       vyr       vzr      icid
     41340       0.0      -4.0     -16.0       0.0       0.0       0.0         0
     41341       0.0      -4.0     -16.0       0.0       0.0       0.0         0
     41342       0.0      -4.0     -16.0       0.0       0.0       0.0         0
     41343       0.0      -4.0     -16.0       0.0       0.0       0.0         0
     41344       0.0      -4.0     -16.0       0.0       0.0       0.0         0
     41345       0.0      -4.0     -16.0       0.0       0.0       0.0         0
     41346       0.0      -4.0     -16.0       0.0       0.0       0.0         0
     41347       0.0      -4.0     -16.0       0.0       0.0       0.0         0
     41348       0.0      -4.0     -16.0       0.0       0.0       0.0         0
     41349       0.0      -4.0     -16.0       0.0       0.0       0.0         0
     41350       0.0      -4.0     -16.0       0.0       0.0       0.0         0
     41351       0.0      -4.0     -16.0       0.0       0.0       0.0         0
     41352       0.0      -4.0     -16.0       0.0       0.0       0.0         0
     41353       0.0      -4.0     -16.0       0.0       0.0       0.0         0
     41354       0.0      -4.0     -16.0       0.0       0.0       0.0         0
     41355       0.0      -4.0     -16.0       0.0       0.0       0.0         0
     41356       0.0      -4.0     -16.0       0.0       0.0       0.0         0
     41357       0.0      -4.0     -16.0       0.0       0.0       0.0         0
     41358       0.0      -4.0     -16.0       0.0       0.0       0.0         0
     41359       0.0      -4.0     -16.0       0.0       0.0       0.0         0
$ ... 21057 like lines cut
*ELEMENT_SOLID (ten nodes format)
$#   eid     pid   
   36710       5
$
$ -----|-------|-------|-------|-------|-------|-------|-------|-------|
$ 3D solid elements
$ -----|-------|-------|-------|-------|-------|-------|-------|-------|
$
$ dummy PSOLID for solid elements without properties
$PSOLID,  0, 0
$#    n1      n2      n3      n4      n5      n6      n7      n8      n9     n10
   42997   42998   42999   43000   44421   44420   44419   44422   44424   44423
   36711       5
   43001   42997   43002   43003   44427   44426   44425   44428   44430   44429
   36712       5
   42997   43003   43004   43005   44428   44432   44431   44433   44435   44434
   36713       5
   42997   42999   43006   43000   44419   44437   44436   44424   44438   44423
   36714       5
   43007   42673   41359   41637   44441   44440   44439   44442   44444   44443
   36715       5
   43007   43008   42497   43009   44447   44446   44445   44448   44450   44449
   36716       5
   43007   43008   43009   43010   44447   44448   44449   44451   44453   44452
   36717       5
   43007   43011   43012   41598   44456   44455   44454   44457   44459   44458
   36718       5
   43013   43014   41784   43015   44462   44461   44460   44463   44465   44464
   36719       5
   43013   43016   43017   43018   44468   44467   44466   44469   44471   44470
   36720       5
$ ... 26509 like lines cut
*ELEMENT_SHELL
$
$ -----|-------|-------|-------|-------|-------|-------|-------|-------|
$ 3D shell elements
$ -----|-------|-------|-------|-------|-------|-------|-------|-------|
$
$ dummy PSHELL for shell elements without properties
$PSHELL, 0, 0, 0., 0
$#   eid     pid      n1      n2      n3      n4      n5      n6      n7      n8
   23481       1   29783   30359   33743   30372       0       0       0       0
   23482       1   30359   30360   33744   33743       0       0       0       0
   23483       1   30360   29784   30361   33744       0       0       0       0
   23484       1   30372   33743   33745   30371       0       0       0       0
   23485       1   33743   33744   33746   33745       0       0       0       0
   23486       1   33744   30361   30362   33746       0       0       0       0
   23487       1   30371   33745   33747   30370       0       0       0       0
   23488       1   33745   33746   33748   33747       0       0       0       0
   23489       1   33746   30362   30363   33748       0       0       0       0
   23490       1   30370   33747   33749   30369       0       0       0       0
   23491       1   33747   33748   33750   33749       0       0       0       0
   23492       1   33748   30363   30364   33750       0       0       0       0
   23493       1   30369   33749   33751   30368       0       0       0       0
   23494       1   33749   33750   33752   33751       0       0       0       0
   23495       1   33750   30364   30365   33752       0       0       0       0
   23496       1   30368   33751   30367   29786       0       0       0       0
   23497       1   33751   33752   30366   30367       0       0       0       0
   23498       1   33752   30365   29785   30366       0       0       0       0
   23499       1   29787   30373   33753   30381       0       0       0       0
   23500       1   30373   30374   33754   33753       0       0       0       0
$ ... 13209 like lines cut
*NODE
$
$ -----|-------|-------|-------|-------|-------|-------|-------|-------|
$ GRIDs defined in local coordinates
$ -----|-------|-------|-------|-------|-------|-------|-------|-------|
$#   nid               x               y               z      tc      rc  
   29783       0.1383333      -0.0866026            0.01       0       0
   29784       0.1433333      -0.0779423            0.01       0       0
   29785       0.1433333      -0.0779423           -0.01       0       0
   29786       0.1383333      -0.0866026           -0.01       0       0
   29787       0.1283333      -0.0866026            0.01       0       0
   29788       0.1283333      -0.0866026           -0.01       0       0
   29789       0.1533333      -0.0779423            0.01       0       0
   29790       0.1533333      -0.0779423           -0.01       0       0
   29791       0.1083333      -0.0866026            0.01       0       0
   29792       0.0983333      -0.0866026            0.01       0       0
   29793       0.0983333      -0.0866026           -0.01       0       0
   29794       0.1083333      -0.0866026           -0.01       0       0
   29795       0.1133333      -0.0952628            0.01       0       0
   29796       0.1133333      -0.0952628           -0.01       0       0
   29797       0.0983333      -0.1039231            0.01       0       0
   29798       0.1083333      -0.1039231            0.01       0       0
   29799       0.1083333      -0.1039231           -0.01       0       0
   29800       0.0983333      -0.1039231           -0.01       0       0
   29801       0.0933333      -0.0952628            0.01       0       0
   29802       0.0933333      -0.0952628           -0.01       0       0
$ ... 11537 like lines cut
$
$ -----|-------|-------|-------|-------|-------|-------|-------|-------|
$ GRIDs defined in local coordinates
$ -----|-------|-------|-------|-------|-------|-------|-------|-------|
   41340          0.0912      -0.0288252       0.0167675       0       0
   41341          0.0912   -8.252003e-04       0.0652649       0       0
   41342          0.0912       -0.042048       0.0890648       0       0
   41343          0.0912      -0.0700479       0.0405675       0       0
   41344           0.087      -0.0736852       0.0426675       0       0
   41345           0.087      -0.0456853       0.0911648       0       0
   41346          0.0842      -0.0736852       0.0426675       0       0
   41347            0.08      -0.0700479       0.0405675       0       0
   41348            0.08      -0.0288252       0.0167675       0       0
   41349       0.0897784       0.0115533        0.078305       0       0
   41350       0.0897784       0.0136533       0.0819423       0       0
   41351       0.0897784      -0.0348441       0.1099423       0       0
   41352       0.0897784      -0.0369441        0.106305       0       0
   41353       0.0926724       0.0136533       0.0819423       0       0
   41354       0.0926724      -0.0348441       0.1099423       0       0
   41355       0.0910509       0.0168121       0.0874136       0       0
   41356       0.0910509      -0.0316853       0.1154135       0       0
   41357       0.0911748       0.0236972       0.0993389       0       0
   41358       0.0911748      -0.0248002       0.1273389       0       0
   41359          0.0884      -0.0234003       0.1297636       0       0
$ ... 21057 like lines cut
*END
