$# LS-DYNA Keyword file created by LS-PrePost(R) V4.5.15 - 08Mar2018
$# Created on Apr-11-2018 (14:05:46)
*KEYWORD
*TITLE
$#                                                                         title
LS-DYNA keyword deck by LS-PrePost
*CONTROL_ADAPTIVE
$# adpfreq    adptol    adpopt    maxlvl    tbirth    tdeath     lcadp    ioflag
     0.001       0.2         2         3       0.01.00000E20         0         1
$# adpsize    adpass    ireflg    adpene     adpth    memory    orient     maxel
       0.0         0         0       0.0       0.0         0         0         0
$# ladpn90    ladpgh    ncfred    ladpcl    adpctl    cbirth    cdeath     lclvl
         0         0         0         1       0.0       0.01.00000E20         0
$#    cnla         -         -     mmm2d    adperr   d3trace              ifsand
       0.0         0         0         00                  0         0         0
*CONTROL_CONTACT
$#  slsfac    rwpnal    islchk    shlthk    penopt    thkchg     orien    enmass
       0.1       0.0         1         0         1         0         1         0
$#  usrstr    usrfrc     nsbcs    interm     xpene     ssthk      ecdt   tiedprj
         0         0         0         0       4.0         0         0         0
$#   sfric     dfric       edc       vfc        th     th_sf    pen_sf      
       0.0       0.0       0.0       0.0       0.0       0.0       0.0
$#  ignore    frceng   skiprwg    outseg   spotstp   spotdel   spothin       
         0         0         0         0         0         0       0.0
$#    isym    nserod    rwgaps    rwgdth     rwksf      icov    swradf    ithoff
         0         0         1       0.0       1.0         0       0.0         0
$#  shledg    pstiff    ithcnt    tdcnof     ftall    unused    shltrw      
         0         0         0         0         0                 0.0
*CONTROL_ENERGY
$#    hgen      rwen    slnten     rylen     
         1         2         1         1
*CONTROL_TERMINATION
$#  endtim    endcyc     dtmin    endeng    endmas     nosol     
      0.01         0       0.0       0.01.000000E8         0
*CONTROL_TIMESTEP
$#  dtinit    tssfac      isdo    tslimt     dt2ms      lctm     erode     ms1st
       0.0       0.9         0       0.0       0.0         0         0         0
$#  dt2msf   dt2mslc     imscl    unused    unused     rmscl     
       0.0         0         0                           0.0
*DATABASE_ELOUT
$#      dt    binary      lcur     ioopt   option1   option2   option3   option4
2.00000E-4         0         0         1         0         0         0         0
*DATABASE_GLSTAT
$#      dt    binary      lcur     ioopt     
2.00000E-4         0         0         1
*DATABASE_BINARY_D3PLOT
$#      dt      lcdt      beam     npltc    psetid      
       0.0         0         0        40         0
$#   ioopt     
         0
*DATABASE_HISTORY_SHELL
$#     id1       id2       id3       id4       id5       id6       id7       id8
      2611      3007      3403      3799         0         0         0         0
*BOUNDARY_PRESCRIBED_MOTION_RIGID
$#     pid       dof       vad      lcid        sf       vid     death     birth
         2         2         2         1      -1.0         01.00000E28       0.0
*BOUNDARY_SPC_SET
$#    nsid       cid      dofx      dofy      dofz     dofrx     dofry     dofrz
         1         0         1         1         1         1         1         1
*SET_NODE_LIST_TITLE
NODESET(SPC) 1
$#     sid       da1       da2       da3       da4    solver      
         1       0.0       0.0       0.0       0.0MECH
$#    nid1      nid2      nid3      nid4      nid5      nid6      nid7      nid8
       147       156       548       648       950      1050      1352      1452
      1754      1854      2156      2256      2652      3048      3444      3840
*BOUNDARY_SPC_SET
$#    nsid       cid      dofx      dofy      dofz     dofrx     dofry     dofrz
         2         0         1         1         1         1         1         1
*SET_NODE_LIST_TITLE
NODESET(SPC) 2
$#     sid       da1       da2       da3       da4    solver      
         2       0.0       0.0       0.0       0.0MECH
$#    nid1      nid2      nid3      nid4      nid5      nid6      nid7      nid8
        57       246       458       558       860       960      1262      1362
      1664      1764      2066      2166      2562      2958      3354      3750
*BOUNDARY_SPC_SET
$#    nsid       cid      dofx      dofy      dofz     dofrx     dofry     dofrz
         3         0         1         0         1         0         1         0
*SET_NODE_LIST_TITLE
NODESET(SPC) 3
$#     sid       da1       da2       da3       da4    solver      
         3       0.0       0.0       0.0       0.0MECH
$#    nid1      nid2      nid3      nid4      nid5      nid6      nid7      nid8
      4142      4145      4148      4149      4199      4200      4201      4202
      4203      4204      4205      4206      4207      4208      4209      4210
      4211      4212      4213      4214      4215      4216      4217      4218
      4219      4220      4221      4222      4223      4224      4225      4226
      4227      4228      4229      4230      4231      4232      4233      4234
      4235      4236      4237      4306      4307      4308      4309      4310
      4311      4312      4313      4314      4315      4316      4317      4318
      4319      4320      4321      4322      4323      4324      4325      4326
      4327      4328      4329      4330      4331      4332      4333      4334
      4335      4336      4337      4338      4339      4340      4341      4342
      4343      4344         0         0         0         0         0         0
*CONTACT_AUTOMATIC_SINGLE_SURFACE_ID
$#     cid                                                                 title
         2                                                                      
$#    ssid      msid     sstyp     mstyp    sboxid    mboxid       spr       mpr
         0         0         0         0         0         0         0         0
$#      fs        fd        dc        vc       vdc    penchk        bt        dt
      0.15      0.15       0.0       0.0       0.0         0       0.01.00000E20
$#     sfs       sfm       sst       mst      sfst      sfmt       fsf       vsf
       1.0       1.0       0.0       0.0       1.0       1.0       1.0       1.0
*PART
$#                                                                         title
auto created
$#     pid     secid       mid     eosid      hgid      grav    adpopt      tmid
         1         1         1         0         0         0         1         0
*SECTION_SHELL_TITLE
Specimen
$#   secid    elform      shrf       nip     propt   qr/irid     icomp     setyp
         1         2       1.0         3       1.0         0         0         1
$#      t1        t2        t3        t4      nloc     marea      idof    edgset
     0.003     0.003     0.003     0.003       0.0       0.0       0.0         0
*MAT_PIECEWISE_LINEAR_PLASTICITY_TITLE
SteelPlate
$#     mid        ro         e        pr      sigy      etan      fail      tdel
         1    7850.02.10000E11      0.333.500000E81.100000E91.00000E21       0.0
$#       c         p      lcss      lcsr        vp  
       0.0       0.0         0         0       0.0
$#    eps1      eps2      eps3      eps4      eps5      eps6      eps7      eps8
       0.0       0.0       0.0       0.0       0.0       0.0       0.0       0.0
$#     es1       es2       es3       es4       es5       es6       es7       es8
       0.0       0.0       0.0       0.0       0.0       0.0       0.0       0.0
*PART
$#                                                                         title
Indenter
$#     pid     secid       mid     eosid      hgid      grav    adpopt      tmid
         2         2         2         0         0         0         0         0
*SECTION_SHELL_TITLE
Indenter
$#   secid    elform      shrf       nip     propt   qr/irid     icomp     setyp
         2         2       1.0         3       1.0         0         0         1
$#      t1        t2        t3        t4      nloc     marea      idof    edgset
     0.005     0.005     0.005     0.005       0.0       0.0       0.0         0
*MAT_RIGID_TITLE
indenter
$#     mid        ro         e        pr         n    couple         m     alias
         2    7850.02.09000E11      0.29       0.0       0.0       0.0          
$#     cmo      con1      con2    
       0.0         0         0
$#lco or a1        a2        a3        v1        v2        v3  
       0.0       0.0       0.0       0.0       0.0       0.0
*DEFINE_COORDINATE_SYSTEM
$
$ -----|-------|-------|-------|-------|-------|-------|-------|-------|
$ SYSTEMs used as CP on GRIDs
$ -----|-------|-------|-------|-------|-------|-------|-------|-------|
$#     cid        xo        yo        zo        xl        yl        zl      cidl
         3 -0.119915     0.062      0.44 -0.119915     0.062     -0.56         0
$#      xp        yp        zp  
 -0.119915     1.062      0.44
*DEFINE_CURVE_TITLE
CurveGen_1
$#    lcid      sidr       sfa       sfo      offa      offo    dattyp     lcint
         1         0       0.0       0.0       0.0       0.0         0         0
$#                a1                  o1  
                 0.0                 0.0
    2.0408163255e-04           0.0010204
    4.0816326509e-04           0.0020408
    6.1224488309e-04           0.0030612
    8.1632653018e-04           0.0040816
           0.0010204            0.005102
           0.0012245           0.0061224
           0.0014286           0.0071429
           0.0016327           0.0081633
           0.0018367           0.0091837
           0.0020408           0.0102041
           0.0022449           0.0112245
            0.002449           0.0122449
           0.0026531           0.0132653
           0.0028571           0.0142857
           0.0030612           0.0153061
           0.0032653           0.0163265
           0.0034694           0.0173469
           0.0036735           0.0183673
           0.0038776           0.0193878
$ ... 79 like lines cut
*ELEMENT_SHELL
$
$ -----|-------|-------|-------|-------|-------|-------|-------|-------|
$ 3D shell elements
$ -----|-------|-------|-------|-------|-------|-------|-------|-------|
$
$ dummy PSHELL for shell elements without properties
$PSHELL, 0, 0, 0., 0
$#   eid     pid      n1      n2      n3      n4      n5      n6      n7      n8
       1       1       1       2      53     250       0       0       0       0
       2       1     250      53      54     249       0       0       0       0
       3       1     249      54      55     248       0       0       0       0
       4       1     248      55      56     247       0       0       0       0
       5       1     247      56      57     246       0       0       0       0
       6       1     246      57      58     245       0       0       0       0
       7       1     245      58      59     244       0       0       0       0
       8       1     244      59      60     243       0       0       0       0
       9       1     243      60      61     242       0       0       0       0
      10       1     242      61      62     241       0       0       0       0
      11       1     241      62      63     240       0       0       0       0
      12       1     240      63      64     239       0       0       0       0
      13       1     239      64      65     238       0       0       0       0
      14       1     238      65      66     237       0       0       0       0
      15       1     237      66      67     236       0       0       0       0
      16       1     236      67      68     235       0       0       0       0
      17       1     235      68      69     234       0       0       0       0
      18       1     234      69      70     233       0       0       0       0
      19       1     233      70      71     232       0       0       0       0
      20       1     232      71      72     231       0       0       0       0
$ ... 4980 like lines cut
*NODE
$
$ -----|-------|-------|-------|-------|-------|-------|-------|-------|
$ GRIDs defined in local coordinates
$ -----|-------|-------|-------|-------|-------|-------|-------|-------|
$#   nid               x               y               z      tc      rc  
       1       0.2200845             0.0             1.0       0       0
       2       0.2100846             0.0             1.0       0       0
       3       0.2100846             0.0             0.0       0       0
       4       0.2200845             0.0             0.0       0       0
       5       0.2000846            0.02             1.0       0       0
       6       0.2000846            0.02             0.0       0       0
       7       0.1800846            0.02             1.0       0       0
       8       0.1800846            0.02             0.0       0       0
       9       0.1700846             0.0             1.0       0       0
      10       0.1700846             0.0             0.0       0       0
      11       0.1500846             0.0             1.0       0       0
      12       0.1500846             0.0             0.0       0       0
      13       0.1600846             0.0             0.0       0       0
      14       0.1600846             0.0             1.0       0       0
      15       0.1400846            0.02             1.0       0       0
      16       0.1400846            0.02             0.0       0       0
      17       0.1200846            0.02             1.0       0       0
      18       0.1200846            0.02             0.0       0       0
      19       0.1100846             0.0             1.0       0       0
      20       0.1100846             0.0             0.0       0       0
$ ... 5187 like lines cut
*END
