$ *******************************************************************
$  Abaqus/toNastran Release 6.14-5
$
$   reading Abaqus input: Job-1.inp
$ creating Nastran input: Job-1.bdf
$ writing diagnostics to: Job-1.log
$
$----------------------------------------------
$The following Abaqus keywords were recognized:
$            keyword number
$------------------- ------
$            elastic      1
$            element      6
$              elset      3
$            heading      1
$           material      1
$               node      3
$               nset      3
$       shellsection      3
$             system      4
$-------------------------------------------
$The following Abaqus keywords were ignored:
$            keyword number
$------------------- ------
$           preprint      1
CEND
BEGIN BULK
$
$ -----|-------|-------|-------|-------|-------|-------|-------|-------|
$ SYSTEMs used as CP on GRIDs
$ -----|-------|-------|-------|-------|-------|-------|-------|-------|
CORD2R*                3                  -6.698620e+002  -5.000000e+002
*         -8.815659e+001  -6.698620e+002  -4.990000e+002  -8.815659e+001
*         -6.708620e+002  -5.000000e+002  -8.815659e+001
CORD2R*                6                   6.698620e+002  -5.000000e+002
*          1.518434e+002   6.698620e+002  -4.990000e+002   1.518434e+002
*          6.708620e+002  -5.000000e+002   1.518434e+002
$
$ -----|-------|-------|-------|-------|-------|-------|-------|-------|
$ GRIDs defined in local coordinates
$ -----|-------|-------|-------|-------|-------|-------|-------|-------|
GRID*                  1               3  -4.000000e+001   2.300000e+002
*          4.600000e+002                
GRID*                  2               3  -7.000000e+001   2.000000e+002
*          4.600000e+002                
GRID*                  3               3  -7.000000e+001   2.000000e+002
*          4.000000e+002                
GRID*                  4               3  -4.000000e+001   2.300000e+002
*          4.000000e+002                
GRID*                  5               3  -7.000000e+001   4.000000e+001
*          4.600000e+002                
GRID*                  6               3  -7.000000e+001   4.000000e+001
*          4.000000e+002                
GRID*                  7               3  -4.500000e+001   1.500000e+001
*          4.600000e+002                
GRID*                  8               3  -4.500000e+001   1.500000e+001
*          4.000000e+002                
GRID*                  9               3   6.500000e+001   2.150000e+002
*          4.600000e+002                
GRID*                 10               3   9.000000e+001   2.000000e+002
*          4.600000e+002                
GRID*                 11               3   9.000000e+001   2.000000e+002
*          4.000000e+002                
GRID*                 12               3   6.500000e+001   2.150000e+002
*          4.000000e+002                
GRID*                 13               3   9.000000e+001   4.000000e+001
*          4.600000e+002                
GRID*                 14               3   9.000000e+001   4.000000e+001
*          4.000000e+002                
GRID*                 15               3   6.500000e+001   2.750000e+001
*          4.600000e+002                
GRID*                 16               3   6.500000e+001   2.750000e+001
*          4.000000e+002                
GRID*                 17               3   1.000000e+002   2.200000e+002
*          2.300000e+002                
GRID*                 18               3   1.000000e+002   2.000000e+001
*          2.300000e+002                
GRID*                 19               3   1.000000e+002   2.000000e+001
*          2.100000e+002                
GRID*                 20               3   1.000000e+002   2.200000e+002
*          2.100000e+002                
$ ... 7436 like lines cut
$
$ -----|-------|-------|-------|-------|-------|-------|-------|-------|
$ 3D shell elements
$ -----|-------|-------|-------|-------|-------|-------|-------|-------|
$
$ PSHELL created from shell section
$        elset = PART-1-COPY-1_SET-1
$     material = MATERIAL-1
PSHELL*                1               1   1.000000e+000               1
*                                                                       
$
CQUAD4*                1               1               1             115
*                    615             120                                
CQUAD4*                2               1             115               2
*                    116             615                                
CQUAD4*                3               1             120             615
*                    616             119                                
CQUAD4*                4               1             615             116
*                    117             616                                
CQUAD4*                5               1             119             616
*                    118               4                                
CQUAD4*                6               1             616             117
*                      3             118                                
CQUAD4*                7               1               2             121
*                    617             116                                
CQUAD4*                8               1             121             122
*                    618             617                                
CQUAD4*                9               1             122             123
*                    619             618                                
CQUAD4*               10               1             123             124
*                    620             619                                
CQUAD4*               11               1             124             125
*                    621             620                                
CQUAD4*               12               1             125             126
*                    622             621                                
CQUAD4*               13               1             126             127
*                    623             622                                
CQUAD4*               14               1             127             128
*                    624             623                                
CQUAD4*               15               1             128               5
*                    129             624                                
CQUAD4*               16               1             116             617
*                    625             117                                
CQUAD4*               17               1             617             618
*                    626             625                                
CQUAD4*               18               1             618             619
*                    627             626                                
CQUAD4*               19               1             619             620
*                    628             627                                
CQUAD4*               20               1             620             621
*                    629             628                                
$ ... 1886 like lines cut
CTRIA3*              915               1             576             455
*                    575                                
CTRIA3*              916               1             583             109
*                     98                                
CTRIA3*              917               1             585             586
*                    526                                
CTRIA3*              918               1             578              93
*                    108                                
CTRIA3*              919               1             386            1007
*                     79                                
CTRIA3*              920               1            1011             599
*                    600                                
$
$ PSHELL created from shell section
$        elset = PART-2-COPY-1_SET-1
$     material = MATERIAL-1
PSHELL*                2               1   1.000000e+000               1
*                                                                       
$
CQUAD4*              970               2            1015            1090
*                   1883            1103                                
CQUAD4*              971               2            1090            1091
*                   1884            1883                                
CQUAD4*              972               2            1091            1016
*                   1092            1884                                
CQUAD4*              973               2            1103            1883
*                   1885            1102                                
CQUAD4*              974               2            1883            1884
*                   1886            1885                                
CQUAD4*              975               2            1884            1092
*                   1093            1886                                
CQUAD4*              976               2            1102            1885
*                   1887            1101                                
CQUAD4*              977               2            1885            1886
*                   1888            1887                                
CQUAD4*              978               2            1886            1093
*                   1094            1888                                
CQUAD4*              979               2            1101            1887
*                   1889            1100                                
CQUAD4*              980               2            1887            1888
*                   1890            1889                                
CQUAD4*              981               2            1888            1094
*                   1095            1890                                
CQUAD4*              982               2            1100            1889
*                   1891            1099                                
CQUAD4*              983               2            1889            1890
*                   1892            1891                                
CQUAD4*              984               2            1890            1095
*                   1096            1892                                
CQUAD4*              985               2            1099            1891
*                   1098            1018                                
CQUAD4*              986               2            1891            1892
*                   1097            1098                                
CQUAD4*              987               2            1892            1096
*                   1017            1097                                
CQUAD4*              988               2            1019            1104
*                   1893            1117                                
CQUAD4*              989               2            1104            1105
*                   1894            1893                                
$ ... 3170 like lines cut
CTRIA3*             2298               2            2569            2566
*                   2568                                
CTRIA3*             2299               2            1820            2567
*                   1819                                
CTRIA3*             2335               2            2587            2585
*                   2580                                
CTRIA3*             2336               2            2592            2572
*                   1832                                
CTRIA3*             2372               2            2608            2607
*                   2604                                
CTRIA3*             2373               2            2605            2612
*                   2606                                
CTRIA3*             2410               2            2642            2636
*                   2639                                
CTRIA3*             2411               2            2639            2630
*                   2642                                
CTRIA3*             2454               2            2658            2649
*                   1204                                
CTRIA3*             2455               2            2648            2646
*                   1031                                
CTRIA3*             2517               2            2707            2702
*                   2704                                
CTRIA3*             2518               2            2704            2695
*                   2707                                
CTRIA3*             2561               2            2723            2712
*                   1392                                
CTRIA3*             2562               2            2714            2711
*                   1048                                
$
$ PSHELL created from shell section
$        elset = PART-1-COPY-2_SET-1
$     material = MATERIAL-1
PSHELL*                3               1   1.000000e+000               1
*                                                                       
$
CQUAD4*             2589               3            2725            2839
*                   3339            2844                                
CQUAD4*             2590               3            2839            2726
*                   2840            3339                                
CQUAD4*             2591               3            2844            3339
*                   3340            2843                                
CQUAD4*             2592               3            3339            2840
*                   2841            3340                                
CQUAD4*             2593               3            2843            3340
*                   2842            2728                                
CQUAD4*             2594               3            3340            2841
*                   2727            2842                                
CQUAD4*             2595               3            2726            2845
*                   3341            2840                                
CQUAD4*             2596               3            2845            2846
*                   3342            3341                                
CQUAD4*             2597               3            2846            2847
*                   3343            3342                                
CQUAD4*             2598               3            2847            2848
*                   3344            3343                                
CQUAD4*             2599               3            2848            2849
*                   3345            3344                                
CQUAD4*             2600               3            2849            2850
*                   3346            3345                                
CQUAD4*             2601               3            2850            2851
*                   3347            3346                                
CQUAD4*             2602               3            2851            2852
*                   3348            3347                                
CQUAD4*             2603               3            2852            2729
*                   2853            3348                                
CQUAD4*             2604               3            2840            3341
*                   3349            2841                                
CQUAD4*             2605               3            3341            3342
*                   3350            3349                                
CQUAD4*             2606               3            3342            3343
*                   3351            3350                                
CQUAD4*             2607               3            3343            3344
*                   3352            3351                                
CQUAD4*             2608               3            3344            3345
*                   3353            3352                                
$ ... 1886 like lines cut
CTRIA3*             3503               3            3300            3179
*                   3299                                
CTRIA3*             3504               3            3307            2833
*                   2822                                
CTRIA3*             3505               3            3309            3310
*                   3250                                
CTRIA3*             3506               3            3302            2817
*                   2832                                
CTRIA3*             3507               3            3110            3731
*                   2803                                
CTRIA3*             3508               3            3735            3323
*                   3324                                
$
$ MAT1 from material MATERIAL-1
MAT1*                  1   1.000000e+000                   1.000000e+000
*          0.000000e+000   0.000000e+000   0.000000e+000   0.000000e+000
$ -----|-------|-------|-------|-------|-------|-------|-------|-------|
ENDDATA
