$# LS-DYNA Keyword file created by LS-PrePost(R) V4.5.15 - 08Mar2018
$# Created on Mar-20-2018 (15:01:01)
*KEYWORD MEMORY=800000000 NCPU=4
*TITLE
$#                                                                         title
LS-DYNA keyword deck by LS-PrePost
*CONTROL_ENERGY
$     hgen      rwen    slnten     rylen
$#    hgen      rwen    slnten     rylen     
         2         2         1         1
*CONTROL_TERMINATION
$   endtim    endcyc     dtmin    endeng    endmas
$#  endtim    endcyc     dtmin    endeng    endmas     nosol     
      30.0         0       0.0       0.01.000000E8         0
*DATABASE_GLSTAT
$   endtim    endcyc     dtmin    endeng    endmas
$#      dt    binary      lcur     ioopt     
       0.1         0         0         1
*DATABASE_MATSUM
$       dt
$#      dt    binary      lcur     ioopt     
       0.1         0         0         1
*DATABASE_NODOUT
$       dt
$#      dt    binary      lcur     ioopt   option1   option2       
       0.1         0         0         1       0.0         0
*DATABASE_RWFORC
$       dt
$#      dt    binary      lcur     ioopt     
       0.1         0         0         1
*DATABASE_SLEOUT
$       dt
$#      dt    binary      lcur     ioopt     
       0.1         0         0         1
*DATABASE_BINARY_D3PLOT
$       dt       lcdt
$#      dt      lcdt      beam     npltc    psetid      
       1.0         0         0         0         0
*DATABASE_BINARY_D3THDT
$       dt       lcdt
$#      dt      lcdt      beam     npltc    psetid      
       1.0         0         0         0         0
*DATABASE_EXTENT_BINARY
$    neiph     neips    maxint    strflg    sigflg    epsflg    rltflg    engflg
$#   neiph     neips    maxint    strflg    sigflg    epsflg    rltflg    engflg
         0         0         3         0         1         1         1         1
$#  cmpflg    ieverp    beamip     dcomp      shge     stssz    n3thdt   ialemat
         0         1         0         1         1         1         2         1
*BOUNDARY_SPC_SET
$#    nsid       cid      dofx      dofy      dofz     dofrx     dofry     dofrz
         9         0         1         1         1         1         1         1
*SET_NODE_LIST_TITLE
NODESET(SPC) 9
$#     sid       da1       da2       da3       da4    solver      
         9       0.0       0.0       0.0       0.0MECH
$#    nid1      nid2      nid3      nid4      nid5      nid6      nid7      nid8
    100575    100454    100574    100582    100108    100097    100584    100585
    100525    100577    100092    100107    100385    101006    100078    101010
    100598    100599    100453    100576    100088    100420    100613    100106
    100611    100612    100421    100422    100077    100363    100605    100113
    101007    101008    100601    100602    101009    100600    100594    100444
    100090    100110    100463    100593    100591    100592    100464    100465
    100094    100109    100490    100581    100579    100580    100491    100492
    100603    100604    100364    100493    100578    100423    100610    100609
    100424    100425    100608    100426    100607    100427    100606    100112
    100388    100387    100597    100086    100111    101011    100595    101013
    100466    100590    100589    100467    100468    100588    100469    100587
    100470    100586    100583    100526    101012    100443    100596    100386
    103299    103178    103298    103306    102832    102821    103308    103309
    103249    103301    102816    102831    103109    103730    102802    103734
    103322    103323    103177    103300    102812    103144    103337    102830
    103335    103336    103145    103146    102801    103087    103329    102837
    103731    103732    103325    103326    103733    103324    103318    103168
    102814    102834    103187    103317    103315    103316    103188    103189
    102818    102833    103214    103305    103303    103304    103215    103216
    103327    103328    103088    103217    103302    103147    103334    103333
$ ... 56 like lines cut
*CONTACT_AUTOMATIC_SINGLE_SURFACE_ID
$#     cid                                                                 title
         1                                                                      
$#    ssid      msid     sstyp     mstyp    sboxid    mboxid       spr       mpr
         0         0         0         0         0         0         0         0
$#      fs        fd        dc        vc       vdc    penchk        bt        dt
      0.08      0.08       0.0       0.0       0.0         0       0.01.00000E20
$#     sfs       sfm       sst       mst      sfst      sfmt       fsf       vsf
       1.0       1.0       0.0       0.0       1.0       1.0       1.0       1.0
*CONTACT_TIED_NODES_TO_SURFACE
$#     cid                                                                 title
$#    ssid      msid     sstyp     mstyp    sboxid    mboxid       spr       mpr
         1         2         4         0         0         0         0         0
$#      fs        fd        dc        vc       vdc    penchk        bt        dt
       0.0       0.0       0.0       0.0       0.0         0       0.01.00000E20
$#     sfs       sfm       sst       mst      sfst      sfmt       fsf       vsf
       1.0       1.0       0.0       0.0       1.0       1.0       1.0       1.0
*SET_NODE_LIST_TITLE
L_in
$#     sid       da1       da2       da3       da4    solver      
         1       0.0       0.0       0.0       0.0MECH
$#    nid1      nid2      nid3      nid4      nid5      nid6      nid7      nid8
    100001    100120    100616    100115    100121    100617    100122    100618
    100123    100619    100124    100620    100125    100621    100126    100622
    100127    100623    100004    100128    100624    100116    100625    100626
    100627    100628    100629    100630    100631    100129    100137    100002
    100136    100135    100134    100133    100132    100131    100130    100005
    108710    108713    108693    108714    108717    108711    108718    108721
    108715    108722    108725    108719    108726    108729    108723    108730
    108733    108727    108734    108737    108731    108738    108741    108735
    108742    108745    108739    108712    108748    108700    108716    108751
    108746    108720    108754    108749    108724    108757    108752    108728
    108760    108755    108732    108763    108758    108736    108766    108761
    108740    108769    108764    108744    108772    108767    108747    108775
    108707    108750    108778    108773    108753    108781    108776    108756
    108784    108779    108759    108787    108782    108762    108790    108785
    108765    108793    108788    108768    108796    108791    108771    108799
    108794    108743    108770    108774    108777    108780    108783    108786
    108789    108792    108795    108797    108798         0         0         0
*SET_SEGMENT_TITLE
FL_in
$#     sid       da1       da2       da3       da4    solver      
         2       0.0       0.0       0.0       0.0MECH
$#      n1        n2        n3        n4        a1        a2        a3        a4
    108182    102635    108229    108270       0.0       0.0       0.0       0.0
    102638    108182    108270    108258       0.0       0.0       0.0       0.0
    102631    108192    108195    108194       0.0       0.0       0.0       0.0
    108245    108246    108192    102631       0.0       0.0       0.0       0.0
    108194    108195    108193    102620       0.0       0.0       0.0       0.0
    102620    108272    108273    108194       0.0       0.0       0.0       0.0
    108194    108273    108247    102631       0.0       0.0       0.0       0.0
    108248    108249    108204    101851       0.0       0.0       0.0       0.0
    101851    108204    108208    108207       0.0       0.0       0.0       0.0
    108207    108208    108206    101850       0.0       0.0       0.0       0.0
    108282    108281    101850    108206       0.0       0.0       0.0       0.0
    101848    102634    101810    101075       0.0       0.0       0.0       0.0
    108249    108247    102627    108204       0.0       0.0       0.0       0.0
    108204    102627    108205    108208       0.0       0.0       0.0       0.0
    108259    108260    108205    102627       0.0       0.0       0.0       0.0
    108260    108258    102628    108205       0.0       0.0       0.0       0.0
    108208    108205    102628    108206       0.0       0.0       0.0       0.0
    108269    108282    108206    102628       0.0       0.0       0.0       0.0
    101810    102634    102623    101811       0.0       0.0       0.0       0.0
    108225    101848    108297    108298       0.0       0.0       0.0       0.0
$ ... 40 like lines cut
*CONTACT_TIED_NODES_TO_SURFACE_ID
$#     cid                                                                 title
         3                                                                      
$#    ssid      msid     sstyp     mstyp    sboxid    mboxid       spr       mpr
         2         3         4         0         0         0         0         0
$#      fs        fd        dc        vc       vdc    penchk        bt        dt
       0.0       0.0       0.0       0.0       0.0         0       0.01.00000E20
$#     sfs       sfm       sst       mst      sfst      sfmt       fsf       vsf
       1.0       1.0       0.0       0.0       1.0       1.0       1.0       1.0
*SET_NODE_LIST_TITLE
L_out
$#     sid       da1       da2       da3       da4    solver      
         2       0.0       0.0       0.0       0.0MECH
$#    nid1      nid2      nid3      nid4      nid5      nid6      nid7      nid8
    100009    100146    100634    100142    100147    100635    100148    100636
    100149    100637    100150    100638    100151    100639    100152    100640
    100153    100641    100012    100154    100642    100143    100643    100644
    100645    100646    100647    100648    100649    100155    100163    100010
    100162    100161    100160    100159    100158    100157    100156    100013
    108833    108836    108821    108837    108840    108834    108841    108844
    108838    108845    108848    108842    108849    108852    108846    108853
    108856    108850    108857    108860    108854    108861    108864    108858
    108865    108868    108862    108835    108871    108825    108839    108874
    108869    108843    108877    108872    108847    108880    108875    108851
    108883    108878    108855    108886    108881    108859    108889    108884
    108863    108892    108887    108867    108895    108890    108870    108898
    108829    108873    108901    108896    108876    108904    108899    108879
    108907    108902    108882    108910    108905    108885    108913    108908
    108888    108916    108911    108891    108919    108914    108894    108922
    108917    108866    108893    108897    108900    108903    108906    108909
    108912    108915    108918    108920    108921         0         0         0
*SET_SEGMENT_TITLE
FL_out
$#     sid       da1       da2       da3       da4    solver      
         3       0.0       0.0       0.0       0.0MECH
$#      n1        n2        n3        n4        a1        a2        a3        a4
    101857    101076    101819    102651       0.0       0.0       0.0       0.0
    101818    102650    102651    101819       0.0       0.0       0.0       0.0
    101835    101082    101853    102646       0.0       0.0       0.0       0.0
    101836    101835    102646    102647       0.0       0.0       0.0       0.0
    101837    101836    102647    102648       0.0       0.0       0.0       0.0
    104417    101030    108308    108344       0.0       0.0       0.0       0.0
    102654    102646    101853    101854       0.0       0.0       0.0       0.0
    101235    104417    108344    108343       0.0       0.0       0.0       0.0
    102655    102654    101854    101855       0.0       0.0       0.0       0.0
    102653    101855    101856    102652       0.0       0.0       0.0       0.0
    101857    102651    102652    101856       0.0       0.0       0.0       0.0
    101033    104421    108368    108357       0.0       0.0       0.0       0.0
    104421    101235    108343    108368       0.0       0.0       0.0       0.0
    102644    102655    101855    102653       0.0       0.0       0.0       0.0
    102644    102645    102654    102655       0.0       0.0       0.0       0.0
    102652    102658    101033    102653       0.0       0.0       0.0       0.0
    102647    102646    102654    102645       0.0       0.0       0.0       0.0
    102650    102658    102652    102651       0.0       0.0       0.0       0.0
    102647    102645    101030    101030       0.0       0.0       0.0       0.0
    108310    108308    101030    108309       0.0       0.0       0.0       0.0
$ ... 64 like lines cut
*CONTACT_TIED_NODES_TO_SURFACE_ID
$#     cid                                                                 title
         4                                                                      
$#    ssid      msid     sstyp     mstyp    sboxid    mboxid       spr       mpr
         3         4         4         0         0         0         0         0
$#      fs        fd        dc        vc       vdc    penchk        bt        dt
       0.0       0.0       0.0       0.0       0.0         0       0.01.00000E20
$#     sfs       sfm       sst       mst      sfst      sfmt       fsf       vsf
       1.0       1.0       0.0       0.0       1.0       1.0       1.0       1.0
*SET_NODE_LIST_TITLE
R_IN
$#     sid       da1       da2       da3       da4    solver      
         3       0.0       0.0       0.0       0.0MECH
$#    nid1      nid2      nid3      nid4      nid5      nid6      nid7      nid8
    102725    102844    103340    102839    102845    103341    102846    103342
    102847    103343    102848    103344    102849    103345    102850    103346
    102851    103347    102728    102852    103348    102840    103349    103350
    103351    103352    103353    103354    103355    102853    102861    102726
    102860    102859    102858    102857    102856    102855    102854    102729
    111662    111665    111645    111666    111669    111663    111670    111673
    111667    111674    111677    111671    111678    111681    111675    111682
    111685    111679    111686    111689    111683    111690    111693    111687
    111694    111697    111691    111664    111700    111652    111668    111703
    111698    111672    111706    111701    111676    111709    111704    111680
    111712    111707    111684    111715    111710    111688    111718    111713
    111692    111721    111716    111696    111724    111719    111699    111727
    111659    111702    111730    111725    111705    111733    111728    111708
    111736    111731    111711    111739    111734    111714    111742    111737
    111717    111745    111740    111720    111748    111743    111723    111751
    111746    111695    111722    111726    111729    111732    111735    111738
    111741    111744    111747    111749    111750         0         0         0
*SET_SEGMENT_TITLE
FR_in
$#     sid       da1       da2       da3       da4    solver      
         4       0.0       0.0       0.0       0.0MECH
$#      n1        n2        n3        n4        a1        a2        a3        a4
    108503    108472    101867    108501       0.0       0.0       0.0       0.0
    108500    101868    108472    108503       0.0       0.0       0.0       0.0
    101872    102699    101824    101079       0.0       0.0       0.0       0.0
    101824    102699    102687    101825       0.0       0.0       0.0       0.0
    108490    102701    108529    108580       0.0       0.0       0.0       0.0
    102703    108490    108580    108564       0.0       0.0       0.0       0.0
    102696    108500    108503    108502       0.0       0.0       0.0       0.0
    108552    108553    108500    102696       0.0       0.0       0.0       0.0
    108502    108503    108501    102685       0.0       0.0       0.0       0.0
    102685    108583    108584    108502       0.0       0.0       0.0       0.0
    108502    108584    108554    102696       0.0       0.0       0.0       0.0
    101875    108512    108516    108515       0.0       0.0       0.0       0.0
    108555    108556    108512    101875       0.0       0.0       0.0       0.0
    108587    108586    101874    108514       0.0       0.0       0.0       0.0
    108515    108516    108514    101874       0.0       0.0       0.0       0.0
    108512    102692    108513    108516       0.0       0.0       0.0       0.0
    108556    108554    102692    108512       0.0       0.0       0.0       0.0
    108565    108566    108513    102692       0.0       0.0       0.0       0.0
    108566    108564    102693    108513       0.0       0.0       0.0       0.0
    108516    108513    102693    108514       0.0       0.0       0.0       0.0
$ ... 40 like lines cut
*CONTACT_TIED_NODES_TO_SURFACE_ID
$#     cid                                                                 title
         5                                                                      
$#    ssid      msid     sstyp     mstyp    sboxid    mboxid       spr       mpr
         4         5         4         0         0         0         0         0
$#      fs        fd        dc        vc       vdc    penchk        bt        dt
       0.0       0.0       0.0       0.0       0.0         0       0.01.00000E20
$#     sfs       sfm       sst       mst      sfst      sfmt       fsf       vsf
       1.0       1.0       0.0       0.0       1.0       1.0       1.0       1.0
*SET_NODE_LIST_TITLE
R_out
$#     sid       da1       da2       da3       da4    solver      
         4       0.0       0.0       0.0       0.0MECH
$#    nid1      nid2      nid3      nid4      nid5      nid6      nid7      nid8
    102733    102870    103358    102866    102871    103359    102872    103360
    102873    103361    102874    103362    102875    103363    102876    103364
    102877    103365    102736    102878    103366    102867    103367    103368
    103369    103370    103371    103372    103373    102879    102887    102734
    102886    102885    102884    102883    102882    102881    102880    102737
    111785    111788    111773    111789    111792    111786    111793    111796
    111790    111797    111800    111794    111801    111804    111798    111805
    111808    111802    111809    111812    111806    111813    111816    111810
    111817    111820    111814    111787    111823    111777    111791    111826
    111821    111795    111829    111824    111799    111832    111827    111803
    111835    111830    111807    111838    111833    111811    111841    111836
    111815    111844    111839    111819    111847    111842    111822    111850
    111781    111825    111853    111848    111828    111856    111851    111831
    111859    111854    111834    111862    111857    111837    111865    111860
    111840    111868    111863    111843    111871    111866    111846    111874
    111869    111818    111845    111849    111852    111855    111858    111861
    111864    111867    111870    111872    111873         0         0         0
*SET_SEGMENT_TITLE
FR_out
$#     sid       da1       da2       da3       da4    solver      
         5       0.0       0.0       0.0       0.0MECH
$#      n1        n2        n3        n4        a1        a2        a3        a4
    108658    101080    107958    108660       0.0       0.0       0.0       0.0
    108660    107958    101833    108659       0.0       0.0       0.0       0.0
    101881    101080    101833    102716       0.0       0.0       0.0       0.0
    101859    101086    101877    102712       0.0       0.0       0.0       0.0
    101860    101859    102712    102713       0.0       0.0       0.0       0.0
    102719    102712    101877    101878       0.0       0.0       0.0       0.0
    102720    102719    101878    101879       0.0       0.0       0.0       0.0
    102718    101879    101880    102717       0.0       0.0       0.0       0.0
    101881    102716    102717    101880       0.0       0.0       0.0       0.0
    102709    102720    101879    102718       0.0       0.0       0.0       0.0
    102709    102710    102719    102720       0.0       0.0       0.0       0.0
    102713    102712    102719    102710       0.0       0.0       0.0       0.0
    108615    108645    108644    102710       0.0       0.0       0.0       0.0
    102713    108641    108645    108615       0.0       0.0       0.0       0.0
    108640    108638    101877    108623       0.0       0.0       0.0       0.0
    108626    108623    101877    108624       0.0       0.0       0.0       0.0
    108625    108626    108624    101878       0.0       0.0       0.0       0.0
    108680    108625    101878    108678       0.0       0.0       0.0       0.0
    108622    102712    108623    108626       0.0       0.0       0.0       0.0
    108641    102712    108622    108645       0.0       0.0       0.0       0.0
$ ... 30 like lines cut
*PART
$#                                                                         title
LBOX
$#     pid     secid       mid     eosid      hgid      grav    adpopt      tmid
         1         2         1         0         0         0         0         0
*SECTION_SHELL
$#   secid    elform      shrf       nip     propt   qr/irid     icomp     setyp
         2         2       1.0         3       1.0         0         0         1
$#      t1        t2        t3        t4      nloc     marea      idof    edgset
       1.0       1.0       1.0       1.0       0.0       0.0       0.0         0
*MAT_PIECEWISE_LINEAR_PLASTICITY
$#     mid        ro         e        pr      sigy      etan      fail      tdel
         17.83000E-6     200.0       0.3     0.366       0.0      0.75       0.0
$#       c         p      lcss      lcsr        vp  
      40.0       5.0         0         0       0.0
$#    eps1      eps2      eps3      eps4      eps5      eps6      eps7      eps8
       0.0     0.025     0.049     0.072     0.095     0.118      0.14     0.182
$#     es1       es2       es3       es4       es5       es6       es7       es8
     0.346     0.454     0.528     0.557     0.589     0.616     0.631     0.654
*PART
$#                                                                         title
FBAR
$#     pid     secid       mid     eosid      hgid      grav    adpopt      tmid
         2         1         1         0         0         0         0         0
*SECTION_SHELL
$      sid    elform      shrf       nip     propt   qr/irid     icomp
$#   secid    elform      shrf       nip     propt   qr/irid     icomp     setyp
         1         2       1.0         3       1.0         0         0         1
$       t1        t2        t3        t4      nloc
$#      t1        t2        t3        t4      nloc     marea      idof    edgset
       2.0       2.0       2.0       2.0       0.0       0.0       0.0         0
*PART
$#                                                                         title
RBOX
$#     pid     secid       mid     eosid      hgid      grav    adpopt      tmid
         3         2         1         0         0         0         0         0
*RIGIDWALL_PLANAR_MOVING_FORCES_ID
$#      id                                                                 title
         1                                                                      
$#    nsid    nsidex     boxid    offset     birth     death     rwksf     
         0         0         0       0.0       0.01.00000E20       1.0
$#      xt        yt        zt        xh        yh        zh      fric      wvel
       0.0     150.0       0.0       0.0       0.0       0.0       1.0       0.0
$#    mass        v0  
     800.0       9.0
$#    soft      ssid        n1        n2        n3        n4  
         0         0     99999         0         0         0
*SET_SEGMENT_TITLE
L_in
$#     sid       da1       da2       da3       da4    solver      
         1       0.0       0.0       0.0       0.0MECH
$#      n1        n2        n3        n4        a1        a2        a3        a4
    100616    100617    100625    100624       0.0       0.0       0.0       0.0
    100617    100618    100626    100625       0.0       0.0       0.0       0.0
    100618    100619    100627    100626       0.0       0.0       0.0       0.0
    100619    100620    100628    100627       0.0       0.0       0.0       0.0
    100620    100621    100629    100628       0.0       0.0       0.0       0.0
    100621    100622    100630    100629       0.0       0.0       0.0       0.0
    100622    100623    100631    100630       0.0       0.0       0.0       0.0
    100114    100001    100115    100614       0.0       0.0       0.0       0.0
    100001    100120    100616    100115       0.0       0.0       0.0       0.0
    100116    100624    100137    100002       0.0       0.0       0.0       0.0
    100615    100116    100002    100117       0.0       0.0       0.0       0.0
    100115    100616    100624    100116       0.0       0.0       0.0       0.0
    100614    100115    100116    100615       0.0       0.0       0.0       0.0
    100002    100117    100958    100556       0.0       0.0       0.0       0.0
    100120    100121    100617    100616       0.0       0.0       0.0       0.0
    100121    100122    100618    100617       0.0       0.0       0.0       0.0
    100122    100123    100619    100618       0.0       0.0       0.0       0.0
    100123    100124    100620    100619       0.0       0.0       0.0       0.0
    100124    100125    100621    100620       0.0       0.0       0.0       0.0
    100125    100126    100622    100621       0.0       0.0       0.0       0.0
$ ... 24 like lines cut
*ELEMENT_SHELL
$
$#   eid     pid      n1      n2      n3      n4      n5      n6      n7      n8
       1       1  100000  108687  108691  108690       0       0       0       0
       2       1  100114  108692  108695  108688       0       0       0       0
       3       1  100119  108689  108699  108698       0       0       0       0
       4       1  100614  108694  108702  108696       0       0       0       0
       5       1  100118  108697  108706  108705       0       0       0       0
       6       1  100615  108701  108709  108703       0       0       0       0
       7       1  100001  108710  108713  108693       0       0       0       0
       8       1  100120  108714  108717  108711       0       0       0       0
       9       1  100121  108718  108721  108715       0       0       0       0
      10       1  100122  108722  108725  108719       0       0       0       0
      11       1  100123  108726  108729  108723       0       0       0       0
      12       1  100124  108730  108733  108727       0       0       0       0
      13       1  100125  108734  108737  108731       0       0       0       0
      14       1  100126  108738  108741  108735       0       0       0       0
      15       1  100127  108742  108745  108739       0       0       0       0
      16       1  100115  108712  108748  108700       0       0       0       0
      17       1  100616  108716  108751  108746       0       0       0       0
      18       1  100617  108720  108754  108749       0       0       0       0
      19       1  100618  108724  108757  108752       0       0       0       0
      20       1  100619  108728  108760  108755       0       0       0       0
$ ... 949 like lines cut
$
     970       2  101014  103738  103742  103741       0       0       0       0
     971       2  101089  103743  103746  103739       0       0       0       0
     972       2  101090  103747  103750  103744       0       0       0       0
     973       2  101102  103740  103754  103753       0       0       0       0
     974       2  101882  103745  103757  103751       0       0       0       0
     975       2  101883  103749  103760  103755       0       0       0       0
     976       2  101101  103752  103764  103763       0       0       0       0
     977       2  101884  103756  103767  103761       0       0       0       0
     978       2  101885  103759  103770  103765       0       0       0       0
     979       2  101100  103762  103774  103773       0       0       0       0
     980       2  101886  103766  103777  103771       0       0       0       0
     981       2  101887  103769  103780  103775       0       0       0       0
     982       2  101099  103772  103784  103783       0       0       0       0
     983       2  101888  103776  103787  103781       0       0       0       0
     984       2  101889  103779  103790  103785       0       0       0       0
     985       2  101098  103782  103794  103793       0       0       0       0
     986       2  101890  103786  103797  103791       0       0       0       0
     987       2  101891  103789  103800  103795       0       0       0       0
     988       2  101018  103801  103805  103804       0       0       0       0
     989       2  101103  103806  103809  103802       0       0       0       0
$ ... 1599 like lines cut
$
    2589       3  102724  111639  111643  111642       0       0       0       0
    2590       3  102838  111644  111647  111640       0       0       0       0
    2591       3  102843  111641  111651  111650       0       0       0       0
    2592       3  103338  111646  111654  111648       0       0       0       0
    2593       3  102842  111649  111658  111657       0       0       0       0
    2594       3  103339  111653  111661  111655       0       0       0       0
    2595       3  102725  111662  111665  111645       0       0       0       0
    2596       3  102844  111666  111669  111663       0       0       0       0
    2597       3  102845  111670  111673  111667       0       0       0       0
    2598       3  102846  111674  111677  111671       0       0       0       0
    2599       3  102847  111678  111681  111675       0       0       0       0
    2600       3  102848  111682  111685  111679       0       0       0       0
    2601       3  102849  111686  111689  111683       0       0       0       0
    2602       3  102850  111690  111693  111687       0       0       0       0
    2603       3  102851  111694  111697  111691       0       0       0       0
    2604       3  102839  111664  111700  111652       0       0       0       0
    2605       3  103340  111668  111703  111698       0       0       0       0
    2606       3  103341  111672  111706  111701       0       0       0       0
    2607       3  103342  111676  111709  111704       0       0       0       0
    2608       3  103343  111680  111712  111707       0       0       0       0
$ ... 949 like lines cut
$
    3558       2  103738  101089  103739  103742       0       0       0       0
$
    3559       2  103742  103739  101882  103740       0       0       0       0
$
    3560       2  103741  103742  103740  101102       0       0       0       0
    3561       2  103743  101090  103744  103746       0       0       0       0
    3562       2  103746  103744  101883  103745       0       0       0       0
    3563       2  103739  103746  103745  101882       0       0       0       0
    3564       2  103747  101015  103748  103750       0       0       0       0
    3565       2  103750  103748  101091  103749       0       0       0       0
    3566       2  103744  103750  103749  101883       0       0       0       0
    3567       2  103740  101882  103751  103754       0       0       0       0
    3568       2  103754  103751  101884  103752       0       0       0       0
    3569       2  103753  103754  103752  101101       0       0       0       0
    3570       2  103745  101883  103755  103757       0       0       0       0
    3571       2  103757  103755  101885  103756       0       0       0       0
    3572       2  103751  103757  103756  101884       0       0       0       0
    3573       2  103749  101091  103758  103760       0       0       0       0
    3574       2  103760  103758  101092  103759       0       0       0       0
    3575       2  103755  103760  103759  101885       0       0       0       0
    3576       2  103752  101884  103761  103764       0       0       0       0
    3577       2  103764  103761  101886  103762       0       0       0       0
    3578       2  103763  103764  103762  101100       0       0       0       0
    3579       2  103756  101885  103765  103767       0       0       0       0
$ ... 4821 like lines cut
$
    8401       1  108687  100114  108688  108691       0       0       0       0
$
    8402       1  108691  108688  100614  108689       0       0       0       0
$
    8403       1  108690  108691  108689  100119       0       0       0       0
    8404       1  108692  100001  108693  108695       0       0       0       0
    8405       1  108695  108693  100115  108694       0       0       0       0
    8406       1  108688  108695  108694  100614       0       0       0       0
    8407       1  108689  100614  108696  108699       0       0       0       0
    8408       1  108699  108696  100615  108697       0       0       0       0
    8409       1  108698  108699  108697  100118       0       0       0       0
    8410       1  108694  100115  108700  108702       0       0       0       0
    8411       1  108702  108700  100116  108701       0       0       0       0
    8412       1  108696  108702  108701  100615       0       0       0       0
    8413       1  108697  100615  108703  108706       0       0       0       0
    8414       1  108706  108703  100117  108704       0       0       0       0
    8415       1  108705  108706  108704  100003       0       0       0       0
    8416       1  108701  100116  108707  108709       0       0       0       0
    8417       1  108709  108707  100002  108708       0       0       0       0
    8418       1  108703  108709  108708  100117       0       0       0       0
    8419       1  108710  100120  108711  108713       0       0       0       0
    8420       1  108713  108711  100616  108712       0       0       0       0
    8421       1  108693  108713  108712  100115       0       0       0       0
    8422       1  108714  100121  108715  108717       0       0       0       0
$ ... 2879 like lines cut
$
   11302       3  111639  102838  111640  111643       0       0       0       0
$
   11303       3  111643  111640  103338  111641       0       0       0       0
$
   11304       3  111642  111643  111641  102843       0       0       0       0
   11305       3  111644  102725  111645  111647       0       0       0       0
   11306       3  111647  111645  102839  111646       0       0       0       0
   11307       3  111640  111647  111646  103338       0       0       0       0
   11308       3  111641  103338  111648  111651       0       0       0       0
   11309       3  111651  111648  103339  111649       0       0       0       0
   11310       3  111650  111651  111649  102842       0       0       0       0
   11311       3  111646  102839  111652  111654       0       0       0       0
   11312       3  111654  111652  102840  111653       0       0       0       0
   11313       3  111648  111654  111653  103339       0       0       0       0
   11314       3  111649  103339  111655  111658       0       0       0       0
   11315       3  111658  111655  102841  111656       0       0       0       0
   11316       3  111657  111658  111656  102727       0       0       0       0
   11317       3  111653  102840  111659  111661       0       0       0       0
   11318       3  111661  111659  102726  111660       0       0       0       0
   11319       3  111655  111661  111660  102841       0       0       0       0
   11320       3  111662  102844  111663  111665       0       0       0       0
   11321       3  111665  111663  103340  111664       0       0       0       0
   11322       3  111645  111665  111664  102839       0       0       0       0
   11323       3  111666  102845  111667  111669       0       0       0       0
$ ... 2879 like lines cut
$
$
$$$$$$$$$$$$$$$$$$$$$$$$$$$$$$$$$$$$$$$$$$$$$$$$$$$$$$$$$$$$$$$$$$$$$$$$$$$$$$$$
$
$$$$  Define Nodes and Elements
$
$$$$$$$$$$$$$$$$$$$$$$$$$$$$$$$$$$$$$$$$$$$$$$$$$$$$$$$$$$$$$$$$$$$$$$$$$$$$$$$$
$
$...>....1....>....2....>....3....>....4....>....5....>....6....>....7....>....8
$
$ NODAL POINT CARDS
*NODE
$    nid               x               y               z      tc      rc
$#   nid               x               y               z      tc      rc  
   99999             0.0             0.0           274.0       0       0
$
$ -----|-------|-------|-------|-------|-------|-------|-------|-------|
$ GRIDs defined in local coordinates
$ -----|-------|-------|-------|-------|-------|-------|-------|-------|
  100000        -629.862           -40.0        141.8434       0       0
  100001        -599.862           -40.0        111.8434       0       0
  100002        -599.862          -100.0        111.8434       0       0
  100003        -629.862          -100.0        141.8434       0       0
  100004        -599.862           -40.0       -48.15659       0       0
  100005        -599.862          -100.0       -48.15659       0       0
  100006        -624.862           -40.0       -73.15659       0       0
  100007        -624.862          -100.0       -73.15659       0       0
  100008        -734.862           -40.0        126.8434       0       0
  100009        -759.862           -40.0        111.8434       0       0
  100010        -759.862          -100.0        111.8434       0       0
  100011        -734.862          -100.0        126.8434       0       0
  100012        -759.862           -40.0       -48.15659       0       0
  100013        -759.862          -100.0       -48.15659       0       0
  100014        -734.862           -40.0       -60.65659       0       0
  100015        -734.862          -100.0       -60.65659       0       0
  100016        -769.862          -270.0        131.8434       0       0
  100017        -769.862          -270.0       -68.15659       0       0
  100018        -769.862          -290.0       -68.15659       0       0
  100019        -769.862          -290.0        131.8434       0       0
$ ... 14571 like lines cut
*END
