#RADIOSS STARTER
##
##--------------------------------------------------------------------------------------------------
#---1----|----2----|----3----|----4----|----5----|----6----|----7----|----8----|----9----|---10----|
##
#
#-
#- DATE	Mon Nov  4 16:10:07 2019
#--------------------------------------------------------------------------------------------------|
#---1----|----2----|----3----|----4----|----5----|----6----|----7----|----8----|----9----|---10----|
/BEGIN
rdv_0510_PRANDTL_MEYER_EXPANSION
      2023         0
                   g                  mm                  ms
                   g                  mm                  ms
#---1----|----2----|----3----|----4----|----5----|----6----|----7----|----8----|----9----|---10----|
#-  1. CONTROL CARDS:
#---1----|----2----|----3----|----4----|----5----|----6----|----7----|----8----|----9----|---10----|
/TITLE
Prandlt-Meyer expansion wave - 08 deg - mach 3
#---1----|----2----|----3----|----4----|----5----|----6----|----7----|----8----|----9----|---10----|
/ANALY
#    N2D3D             IPARITH      ISUB
         2                   0         0
#---1----|----2----|----3----|----4----|----5----|----6----|----7----|----8----|----9----|---10----|
#-  2. MATERIALS:
#---1----|----2----|----3----|----4----|----5----|----6----|----7----|----8----|----9----|---10----|
/MAT/HYD_VISC/1
AIR
#              RHO_I               RHO_0
            1.225E-6                   0
#                Knu                Pmin
                   0                   0
/EOS/IDEAL-GAS/1
AIR
#              GAMMA                  P0                 Psh                  T0               RHO_0
                 1.4                  .1                   0                   0         
#---1----|----2----|----3----|----4----|----5----|----6----|----7----|----8----|----9----|---10----|
/MAT/MULTIFLUID/3
AIR LAW151
#        BLANK CARD                     

#mat_ID_01            Vfrac_01
         1                 1.0  
#---1----|----2----|----3----|----4----|----5----|----6----|----7----|----8----|----9----|---10----|
/INIVEL/FVM/1
SHOCK_VEL
#                 Vx                  Vy                  Vz  Gbric_id  Gquad_id  Gtria_id   Skew_id
                   0                   0       1014.18510567         0         1         0         0
#---1----|----2----|----3----|----4----|----5----|----6----|----7----|----8----|----9----|---10----|
#include ebcs.inc
#---1----|----2----|----3----|----4----|----5----|----6----|----7----|----8----|----9----|---10----|
#-  3. NODES:
#---1----|----2----|----3----|----4----|----5----|----6----|----7----|----8----|----9----|---10----|
/NODE
    281376                   0                  50    20.6896551724138
    281541                   0                  50    45.4272863568216
    282438                   0      2.829789878035    44.9272825970258
    282575                   0    .001103180208102    24.5855953511271
    600158                   0                  50                  80
    600159                   0    49.8799896791529                  80
    600160                   0    49.7599793583058                  80
    600161                   0    49.6399690374587                  80
    600162                   0    49.5199587166116                  80
    600163                   0    49.3999483957646                  80
    600164                   0    49.2799380749175                  80
    600165                   0    49.1599277540704                  80
    600166                   0    49.0399174332233                  80
    600167                   0    48.9199071123762                  80
    600168                   0    48.7998967915291                  80
    600169                   0     48.679886470682                  80
    600170                   0    48.5598761498349                  80
    600171                   0    48.4398658289879                  80
    600172                   0    48.3198555081408                  80
    600173                   0    48.1998451872937                  80
# ... 132694 like lines cut
#---1----|----2----|----3----|----4----|----5----|----6----|----7----|----8----|----9----|---10----|
#-  4. PARTS:
#---1----|----2----|----3----|----4----|----5----|----6----|----7----|----8----|----9----|---10----|
/PART/1
AIR
         1         3         0
#---1----|----2----|----3----|----4----|----5----|----6----|----7----|----8----|----9----|---10----|
# QUAD elements of /PART/1/AIR:
#---1----|----2----|----3----|----4----|----5----|----6----|----7----|----8----|----9----|---10----|
/QUAD/1
         1    602845    602848    602850    602844
         2    602844    602850    602839    602840
         3    602832    602851    602849    602831
         4    602851    602850    602848    602849
         5    602833    602838    602851    602832
         6    602838    602839    602850    602851
         7    602846    602852    602848    602845
         8    602852    602853    602849    602848
         9    602853    602830    602831    602849
        10    602819    602820    602854    602847
        11    602847    602854    602852    602846
        12    602829    602855    602821    602822
        13    602855    602854    602820    602821
        14    602830    602853    602855    602829
        15    602853    602852    602854    602855
        16    602859    602860    602856    602857
        17    602860    602802    602803    602856
        18    602842    602843    602860    602859
        19    602843    602801    602802    602860
        20    602844    602861    602858    602845
# ... 131818 like lines cut
#---1----|----2----|----3----|----4----|----5----|----6----|----7----|----8----|----9----|---10----|
#-  5. GEOMETRICAL SETS:
#---1----|----2----|----3----|----4----|----5----|----6----|----7----|----8----|----9----|---10----|
/PROP/SOLID/1
solid
#   Isolid    Ismstr               Icpre               Inpts    Itetra    Iframe                  dn
         0         0         2         0                   0         0         0                   0
#                q_a                 q_b                   h            LAMBDA_V                MU_V
                   0                   0                   0                   0                   0
#             dt_min   istrain      IHKT
                   0         0         0
#---1----|----2----|----3----|----4----|----5----|----6----|----7----|----8----|----9----|---10----|
#-  6. FUNCTIONS:
#---1----|----2----|----3----|----4----|----5----|----6----|----7----|----8----|----9----|---10----|
/FUNCT/1
unity
#                  X                   Y
                   0                   1
          1000000000                   1
#---1----|----2----|----3----|----4----|----5----|----6----|----7----|----8----|----9----|---10----|
#-  7. QUAD GROUPS:
#---1----|----2----|----3----|----4----|----5----|----6----|----7----|----8----|----9----|---10----|
/GRQUAD/PART/1
group of cells
         1
#---1----|----2----|----3----|----4----|----5----|----6----|----7----|----8----|----9----|---10----|
#-  8. SURFACES:
#---1----|----2----|----3----|----4----|----5----|----6----|----7----|----8----|----9----|---10----|
/SURF/SEG/1
ebcs_in
       239    601067    601066
       240    601068    601067
       241    601069    601068
       242    601070    601069
       243    601071    601070
       244    601072    601071
       245    601073    601072
       246    601074    601073
       247    601075    601074
       248    601076    601075
       249    601077    601076
       250    601078    601077
       251    601079    601078
       252    601080    601079
       253    601081    601080
       254    601082    601081
       255    601083    601082
       256    601084    601083
       257    601085    601084
       258    601086    601085
# ... 147 like lines cut
#---1----|----2----|----3----|----4----|----5----|----6----|----7----|----8----|----9----|---10----|
/SURF/SEG/2
ebcs_out
         1    600159    600158
         2    600158    601899
         3    600160    600159
         4    600161    600160
         5    600162    600161
         6    600163    600162
         7    600164    600163
         8    600165    600164
         9    600166    600165
        10    600167    600166
        11    600168    600167
        12    600169    600168
        13    600170    600169
        14    600171    600170
        15    600172    600171
        16    600173    600172
        17    600174    600173
        18    600175    600174
        19    600176    600175
        20    600177    600176
# ... 884 like lines cut
#---1----|----2----|----3----|----4----|----5----|----6----|----7----|----8----|----9----|---10----|
/END
#---1----|----2----|----3----|----4----|----5----|----6----|----7----|----8----|----9----|---10----|
