#RADIOSS STARTER
#--------------------------------------------------------------------------------------------------|
#- RADIOSS DECK WRITTEN BY HyperCrash
#HyperCrash 14.0 (64 bits) 
#Mon Dec 21 15:02:05 2015
#-
#--------------------------------------------------------------------------------------------------|
#- RADIOSS DECK WRITTEN BY HyperCrash
#HyperCrash 10.0 SA3
#Wed Dec 01 13:32:57 2010
#-
#-
#- DATE	Wed Dec 01 13:32:57 2010
#--------------------------------------------------------------------------------------------------|
#---1----|----2----|----3----|----4----|----5----|----6----|----7----|----8----|----9----|---10----|
#-
#- DATE	Mon Dec 21 15:02:05 2015
#--------------------------------------------------------------------------------------------------|
#---1----|----2----|----3----|----4----|----5----|----6----|----7----|----8----|----9----|---10----|
/BEGIN
EXAMPLE4_66                                                                     
       140         0
                  Mg                  mm                   s
                  Mg                  mm                   s
#---1----|----2----|----3----|----4----|----5----|----6----|----7----|----8----|----9----|---10----|
#-  1. CONTROL CARDS:
#---1----|----2----|----3----|----4----|----5----|----6----|----7----|----8----|----9----|---10----|
/TITLE
BLOW MOLDING
#---1----|----2----|----3----|----4----|----5----|----6----|----7----|----8----|----9----|---10----|
/ANALY
#    N2D3D             IPARITH      ISUB
         0                   0         0
#---1----|----2----|----3----|----4----|----5----|----6----|----7----|----8----|----9----|---10----|
/DEF_SOLID
#  I_SOLID    ISMSTR             ISTRAIN                                  IFRAME
         0         0                   0                                       0
#---1----|----2----|----3----|----4----|----5----|----6----|----7----|----8----|----9----|---10----|
/IOFLAG
#     IPRI               IGTYP     IOUTP    IOUTYY   IROOTYY     IDROT
         0                   0         0         0         0         0
#---1----|----2----|----3----|----4----|----5----|----6----|----7----|----8----|----9----|---10----|
/SPMD
#   DOMDEC     Nproc              Dkword             Nthread
         0         8                   0                   1
#---1----|----2----|----3----|----4----|----5----|----6----|----7----|----8----|----9----|---10----|
#-  2. DAMPING:
#---1----|----2----|----3----|----4----|----5----|----6----|----7----|----8----|----9----|---10----|
/DAMP/1
GLOBAL                                                                                              
#              alpha                beta  grnod_ID   skew_ID              Tstart               Tstop
                 .05                   0    100000         0                   0                   0
/GRNOD/GENE/100000
ALL
     20004     64138
#---1----|----2----|----3----|----4----|----5----|----6----|----7----|----8----|----9----|---10----|
#-  3. MATERIALS:
#---1----|----2----|----3----|----4----|----5----|----6----|----7----|----8----|----9----|---10----|
/MAT/ELAST/1
Tool1
#              RHO_I
             7.85E-9                   0
#                  E                  nu
                2000                  .3
#---1----|----2----|----3----|----4----|----5----|----6----|----7----|----8----|----9----|---10----|
/MAT/ELAST/2
Tool2
#              RHO_I
             7.85E-9                   0
#                  E                  nu
                2000                  .3
#---1----|----2----|----3----|----4----|----5----|----6----|----7----|----8----|----9----|---10----|
/MAT/LAW66/3
Bottle
#              RHO_I
                1E-9
#                  E                  Nu              C_hard               F_cut  F_smooth Iyld_rate
                   4                .475                   0                   1         0         4
#                P_c                 P_t
                   0                   0
#   NFUNCC    NFUNCT
         5         5
#funct_IDc                    Episilon_c             Fscalec
         1                            .1                   0                                                  
         2                             1                   0                                                  
         3                            10                   0                                                  
         4                           100                   0                                                  
         5                          1000                   0                                                  
#funct_IDt                    Episilon_t             Fscalet
         1                            .1                   0                                                  
         2                             1                   0                                                  
         3                            10                   0                                                  
         4                           100                   0                                                  
         5                          1000                   0                                                  
#---1----|----2----|----3----|----4----|----5----|----6----|----7----|----8----|----9----|---10----|
#-  4. NODES:
#---1----|----2----|----3----|----4----|----5----|----6----|----7----|----8----|----9----|---10----|
/NODE
     20004            -58.7793    -5.3684477507401     16.810725968225
     20005             -58.724     13.229683992062     16.780506479914
     20006            -58.7814    -30.567020412123     16.815421736693
     20007            -5.40349      88.68287351594     26.677783289979
     20009            -7.78676     76.063887664585     25.740029317265
     20010            -8.30257     88.682842804647     24.986882610931
     20011            -8.30535     98.305894572079     24.725993085816
     20012            -8.30897            104.6835     24.553948029175
     20017            -8.30021     103.09013151565     24.602670613729
     20018            -8.30723     96.708481453443     24.767151824505
     20019            -8.22452     82.384087035174      25.22235129158
     20022             -58.762    -33.893977644897     16.810408224711
     20023            -58.7694     3.6148466594751     16.787178223381
     20030             -.91902     68.868907790723     30.052279309159
     20032            -56.3446     74.864143584151     16.543871692742
     20033            -50.2866      93.49682814431     16.483503661478
     20034             -56.026      17.01366321928      16.77227030777
     20035             -55.372     46.704182498207     16.658328353787
     20036             -.68398     83.949150324755     27.914759409635
     20037             -.83238     76.063067124553     28.219769416163
# ... 28152 like lines cut
#---1----|----2----|----3----|----4----|----5----|----6----|----7----|----8----|----9----|---10----|
#-  5. BOUNDARY CONDITIONS:
#---1----|----2----|----3----|----4----|----5----|----6----|----7----|----8----|----9----|---10----|
/BCS/1
Tooling_12_const
#  Tra rot   skew_ID  grnod_ID
   110 111         0    100012
/GRNOD/NODE/100012
BCS_group_100012_of_NODE
     64137     64138
#---1----|----2----|----3----|----4----|----5----|----6----|----7----|----8----|----9----|---10----|
/BCS/11
PLASTIC_POINT
#  Tra rot   skew_ID  grnod_ID
   011 110         0        11
/GRNOD/NODE/11
PLASTIC_POINT
     48002
#---1----|----2----|----3----|----4----|----5----|----6----|----7----|----8----|----9----|---10----|
/BCS/12
PLASTIC_ENDS
#  Tra rot   skew_ID  grnod_ID
   010 000         0        12
/GRNOD/NODE/12
PLASTIC_ENDS
     40001     40002     40003     40004     40005     40006     40007     40008     40009     40010
     40011     40012     40013     40014     40015     40016     40017     40018     40019     40020
     40021     40022     40023     40024     40025     40026     40027     40028     40029     40030
     40031     40032     40033     40034     40035     40036     40037     40038     40039     40040
     40041     40042     40043     40044     40045     40046     40047     40048     40049     40050
     40051     40052     40053     40054     40055     40056     40057     40058     40059     40060
     40061     40062     40063     48003     48004     48005     48006     48007     48008     48009
     48010     48011     48012     48013     48014     48015     48016     48017     48018     48019
     48020     48021     48022     48023     48024     48025     48026     48027     48028     48029
     48030     48031     48032     48033     48034     48035     48036     48037     48038     48039
     48040     48041     48042     48043     48044     48045     48046     48047     48048     48049
     48050     48051     48052     48053     48054     48055     48056     48057     48058     48059
     48060     48061     48062     48063     48064
#---1----|----2----|----3----|----4----|----5----|----6----|----7----|----8----|----9----|---10----|
/BCS/13
PLASTIC_LINE
#  Tra rot   skew_ID  grnod_ID
   001 110         0        13
/GRNOD/NODE/13
PLASTIC_LINE
     40001     40064     40127     40190     40253     40316     40379     40442     40505     40568
     40631     40694     40757     40820     40883     40946     41009     41072     41135     41198
     41261     41324     41387     41450     41513     41576     41639     41702     41765     41828
     41891     41954     42017     42080     42143     42206     42269     42332     42395     42458
     42521     42584     42647     42710     42773     42836     42899     42962     43025     43088
     43151     43214     43277     43340     43403     43466     43529     43592     43655     43718
     43781     43844     43907     43970     44033     44096     44159     44222     44285     44348
     44411     44474     44537     44600     44663     44726     44789     44852     44915     44978
     45041     45104     45167     45230     45293     45356     45419     45482     45545     45608
     45671     45734     45797     45860     45923     45986     46049     46112     46175     46238
     46301     46364     46427     46490     46553     46616     46679     46742     46805     46868
     46931     46994     47057     47120     47183     47246     47309     47372     47435     47498
     47561     47624     47687     47750     47813     47876     47939
#---1----|----2----|----3----|----4----|----5----|----6----|----7----|----8----|----9----|---10----|
#-  6. PARTS:
#---1----|----2----|----3----|----4----|----5----|----6----|----7----|----8----|----9----|---10----|
/PART/1
TOOL1
         1         1         0
#---1----|----2----|----3----|----4----|----5----|----6----|----7----|----8----|----9----|---10----|
# SH3N elements of /PART/1/TOOL1:
#---1----|----2----|----3----|----4----|----5----|----6----|----7----|----8----|----9----|---10----|
/SH3N/1
     56093     58778     62468     54405                                                           0
     56094     59383     62785     55798                                                           0
     56101     55613     54405     56306                                                           0
     56122     61592     60845     61579                                                           0
     56123     61727     57150     57157                                                           0
     56128     57493     62659     63874                                                           0
     56129     63066     59033     55376                                                           0
     56131     58970     55126     60540                                                           0
     56132     54580     61542     55253                                                           0
     56135     56250     57459     55282                                                           0
     56260     58503     56742     63077                                                           0
     56281     55120     54238     57677                                                           0
     56339     58803     62147     61206                                                           0
     56527     60271     55878     59910                                                           0
     56773     61646     56208     55129                                                           0
     57136     58081     60442     57132                                                           0
     57304     58331     58778     62468                                                           0
     57313     57139     57132     57564                                                           0
     57381     61850     63952     62413                                                           0
     57579     56737     62325     60720                                                           0
# ... 44 like lines cut
#---1----|----2----|----3----|----4----|----5----|----6----|----7----|----8----|----9----|---10----|
# SHELL elements of /PART/1/TOOL1:
#---1----|----2----|----3----|----4----|----5----|----6----|----7----|----8----|----9----|---10----|
/SHELL/1
     55965     54088     54583     61820     58799                                                 0
     55966     54109     54308     63099     63379                                                 0
     55967     54166     59611     56987     59140                                                 0
     55968     54355     56238     60588     62184                                                 0
     55969     54412     54165     54164     59084                                                 0
     55970     55537     59093     61616     59362                                                 0
     55971     54563     63673     55380     61948                                                 0
     55972     54568     64103     64104     54979                                                 0
     55973     54641     56577     63038     57611                                                 0
     55974     59362     61616     63228     55917                                                 0
     55975     54717     58246     59561     59255                                                 0
     55976     54724     59590     63868     63673                                                 0
     55977     61312     62290     62602     63956                                                 0
     55978     54812     55391     60320     60054                                                 0
     55979     54866     60535     61664     55216                                                 0
     55980     54868     61672     58246     54717                                                 0
     55981     54914     56213     57551     54403                                                 0
     55982     54979     64104     64105     61506                                                 0
     55983     55025     57102     56238     54355                                                 0
     55984     55027     59789     58699     56563                                                 0
# ... 9806 like lines cut
#---1----|----2----|----3----|----4----|----5----|----6----|----7----|----8----|----9----|---10----|
/PART/2
TOOL2
         2         2         0
#---1----|----2----|----3----|----4----|----5----|----6----|----7----|----8----|----9----|---10----|
# SH3N elements of /PART/2/TOOL2:
#---1----|----2----|----3----|----4----|----5----|----6----|----7----|----8----|----9----|---10----|
/SH3N/2
     20071     20935     25570     23029                                                           0
     20303     23831     48151     48108                                                           0
     20402     25139     29704     22879                                                           0
     20435     25538     26493     28330                                                           0
     20572     27190     20373     28980                                                           0
     20770     29668     28773     30218                                                           0
     48156     48110     25998     27661                                                           0
     48158     20655     48074     48095                                                           0
     48162     30029     48134     48114                                                           0
     48163     24257     24722     48071                                                           0
     48168     48126     48136     48125                                                           0
     48169     26774     25753     26744                                                           0
     48172     29719     23143     27462                                                           0
     48173     48097     28463     48108                                                           0
     48775     48712     48711     48701                                                           0
     48779     48958     26888     48175                                                           0
     48937     48873     48872     48862                                                           0
     48950     48882     48880     48881                                                           0
     48958     48856     48881     48855                                                           0
     48975     48896     48893     48892                                                           0
# ... 44 like lines cut
#---1----|----2----|----3----|----4----|----5----|----6----|----7----|----8----|----9----|---10----|
# SHELL elements of /PART/2/TOOL2:
#---1----|----2----|----3----|----4----|----5----|----6----|----7----|----8----|----9----|---10----|
/SHELL/2
     20001     20007     24899     28018     20529                                                 0
     20006     20032     29623     29339     20243                                                 0
     20014     20099     25249     23027     25734                                                 0
     20015     20290     28396     26751     22265                                                 0
     20016     20347     25191     20097     20098                                                 0
     20030     20508     28150     21376     29926                                                 0
     20031     20513     20960     30363     30362                                                 0
     20041     20595     23670     29276     22613                                                 0
     20046     20674     25369     25683     24327                                                 0
     20047     20681     29926     30125     25712                                                 0
     20050     27501     30214     28829     28504                                                 0
     20052     20774     26195     26470     21387                                                 0
     20057     20830     21206     27861     26696                                                 0
     20058     20832     20674     24327     27869                                                 0
     20065     20885     20338     23610     22237                                                 0
     20079     20960     27701     30364     30363                                                 0
     20084     21008     20290     22265     23146                                                 0
     20085     21010     22599     24797     25923                                                 0
     20086     21033     23628     26944     25921                                                 0
     20090     21083     22897     24198     26076                                                 0
# ... 9806 like lines cut
#---1----|----2----|----3----|----4----|----5----|----6----|----7----|----8----|----9----|---10----|
/PART/3
PLASTIC
         3         3         0
#---1----|----2----|----3----|----4----|----5----|----6----|----7----|----8----|----9----|---10----|
# SHELL elements of /PART/3/PLASTIC:
#---1----|----2----|----3----|----4----|----5----|----6----|----7----|----8----|----9----|---10----|
/SHELL/3
     40001     40001     40002     40065     40064                                            1.9855
     40002     40002     40003     40066     40065                                            1.9855
     40003     40003     40004     40067     40066                                            1.9855
     40004     40004     40005     40068     40067                                            1.9855
     40005     40005     40006     40069     40068                                            1.9855
     40006     40006     40007     40070     40069                                            1.9855
     40007     40007     40008     40071     40070                                            1.9855
     40008     40008     40009     40072     40071                                            1.9855
     40009     40009     40010     40073     40072                                            1.9855
     40010     40010     40011     40074     40073                                            1.9855
     40011     40011     40012     40075     40074                                            1.9855
     40012     40012     40013     40076     40075                                            1.9855
     40013     40013     40014     40077     40076                                            1.9855
     40014     40014     40015     40078     40077                                            1.9855
     40015     40015     40016     40079     40078                                            1.9855
     40016     40016     40017     40080     40079                                            1.9855
     40017     40017     40018     40081     40080                                            1.9855
     40018     40018     40019     40082     40081                                            1.9855
     40019     40019     40020     40083     40082                                            1.9855
     40020     40020     40021     40084     40083                                            1.9855
# ... 7981 like lines cut
#---1----|----2----|----3----|----4----|----5----|----6----|----7----|----8----|----9----|---10----|
#-  7. GEOMETRICAL SETS:
#---1----|----2----|----3----|----4----|----5----|----6----|----7----|----8----|----9----|---10----|
/PROP/SHELL/1
Tool1
#   Ishell    Ismstr     Ish3n    Idrill
         1         0         1         0
#                 hm                  hf                  hr                  dm                  dn
                   0                   0                   0                   0                   0
#        N   Istrain               Thick              Ashear              Ithick     Iplas
         1         0                   1                   0                   0         0
#---1----|----2----|----3----|----4----|----5----|----6----|----7----|----8----|----9----|---10----|
/PROP/SHELL/2
Tool2
#   Ishell    Ismstr     Ish3n    Idrill
         1         0         1         0
#                 hm                  hf                  hr                  dm                  dn
                   0                   0                   0                   0                   0
#        N   Istrain               Thick              Ashear              Ithick     Iplas
         1         0                   1                   0                   0         0
#---1----|----2----|----3----|----4----|----5----|----6----|----7----|----8----|----9----|---10----|
/PROP/SHELL/3
Plastic
#   Ishell    Ismstr     Ish3n    Idrill
        24         0         0         0
#                 hm                  hf                  hr                  dm                  dn
                   0                   0                   0                   0                   0
#        N   Istrain               Thick              Ashear              Ithick     Iplas
         5         0                   2                   0                   1         1
#---1----|----2----|----3----|----4----|----5----|----6----|----7----|----8----|----9----|---10----|
#-  8. FUNCTIONS:
#---1----|----2----|----3----|----4----|----5----|----6----|----7----|----8----|----9----|---10----|
/FUNCT/1
Curve 1
#                  X                   Y
                   0             .081069                                                            
              .11469              .15327                                                            
              .23125              .21629                                                            
              .31641              .25194                                                            
              .42936               .2925                                                            
              .56094              .33482                                                            
              .70198              .37573                                                            
              .84331              .41208                                                            
              .97576              .44071                                                            
              1.0902              .45845                                                            
              1.1985               .4676                                                            
              1.3208              .47741                                                            
              1.4487              .48758                                                            
              1.5596              .49632                                                            
              1.6789              .50564                                                            
              1.8045              .51536                                                            
              1.9345               .5253                                                            
              2.0605              .53482                                                            
#---1----|----2----|----3----|----4----|----5----|----6----|----7----|----8----|----9----|---10----|
/FUNCT/2
Curve 2
#                  X                   Y
                   0              .11295                                                            
              .11703              .20878                                                            
              .25486              .31039                                                            
              .37141              .39157                                                            
              .49502              .47082                                                            
              .60256              .53354                                                            
              .72873              .60989                                                            
              .85326              .68669                                                            
              .97304              .76093                                                            
              1.1012              .84035                                                            
              1.2295              .91951                                                            
              1.3586              .99857                                                            
              1.4861              1.0757                                                            
               1.609              1.1488                                                            
              1.7241              1.2157                                                            
              1.8273              1.2735                                                            
              1.9204              1.3258                                                            
              2.0254              1.3866                                                            
#---1----|----2----|----3----|----4----|----5----|----6----|----7----|----8----|----9----|---10----|
/FUNCT/3
Curve 3
#                  X                   Y
                   0              .19311                                                            
              .12979              .32967                                                            
              .24727              .43007                                                            
              .39332              .56003                                                            
              .52579              .67778                                                            
              .65041              .78604                                                            
              .75671               .8785                                                            
              .88833              .99626                                                            
              1.0363              1.1312                                                            
              1.1641              1.2494                                                            
              1.2942              1.3712                                                            
              1.4223              1.4927                                                            
              1.5389              1.6051                                                            
              1.6603              1.7266                                                            
              1.7988              1.8692                                                            
               1.919              1.9952                                                            
              2.0462              2.1306                                                            
#---1----|----2----|----3----|----4----|----5----|----6----|----7----|----8----|----9----|---10----|
/FUNCT/4
Curve 4
#                  X                   Y
                   0              .30044                                                            
              .11196              .54355                                                            
              .20534              .68492                                                            
              .34431              .86378                                                            
              .50177              1.0513                                                            
              .64681              1.2116                                                            
              .73866              1.3042                                                            
              .84564               1.414                                                            
              .98602              1.5604                                                            
              1.1472              1.7306                                                            
              1.3168              1.9115                                                            
               1.482              2.0901                                                            
              1.6305              2.2534                                                            
              1.7496              2.3885                                                            
              1.8467              2.5069                                                            
              1.9842              2.6879                                                            
              2.1109              2.8605                                                            
#---1----|----2----|----3----|----4----|----5----|----6----|----7----|----8----|----9----|---10----|
/FUNCT/5
Curve 5
#                  X                   Y
                   0              .38156                                                            
             .088049              .69965                                                            
              .18549              1.0076                                                            
              .29337              1.3019                                                            
              .40589              1.5732                                                            
              .52503              1.8456                                                            
               .6322              2.0926                                                            
              .76331              2.3638                                                            
              .89523               2.616                                                            
              1.0276              2.8578                                                            
              1.1648              3.1011                                                            
               1.302              3.3397                                                            
              1.4343              3.5674                                                            
              1.5636               3.789                                                            
              1.6948              4.0157                                                            
              1.8247              4.2378                                                            
              1.9586              4.4644                                                            
              2.0953              4.6956                                                            
#---1----|----2----|----3----|----4----|----5----|----6----|----7----|----8----|----9----|---10----|
/FUNCT/6
Curve 6
#                  X                   Y
                   0              .38156                                                            
             .088049              .69965                                                            
              .18549              1.0076                                                            
              .29337              1.3019                                                            
              .40589              1.5732                                                            
              .52503              1.8456                                                            
               .6322              2.0926                                                            
              .76331              2.3638                                                            
              .89523               2.616                                                            
              1.0276              2.8578                                                            
              1.1648              3.1011                                                            
               1.302              3.3397                                                            
              1.4343              3.5674                                                            
              1.5636               3.789                                                            
              1.6948              4.0157                                                            
              1.8247              4.2378                                                            
              1.9586              4.4644                                                            
              2.0953              4.6956                                                            
#---1----|----2----|----3----|----4----|----5----|----6----|----7----|----8----|----9----|---10----|
/FUNCT/101
Tool Move
#                  X                   Y
                   0                   0                                                            
                  .5                   1                                                            
                   1                   1                                                            
#---1----|----2----|----3----|----4----|----5----|----6----|----7----|----8----|----9----|---10----|
/FUNCT/111
Pressure on Plastic
#                  X                   Y
                   0                   0                                                            
                  .5                 .02                                                            
                   1                  .4                                                            
#---1----|----2----|----3----|----4----|----5----|----6----|----7----|----8----|----9----|---10----|
#-  9. PRESSURE LOADS:
#---1----|----2----|----3----|----4----|----5----|----6----|----7----|----8----|----9----|---10----|
/PLOAD/5
Pressure
#  surf_ID  functIDT sensor_ID                                          Ascale_x            Fscale_y
    100013       111         0                                                 1                 1.2
/SURF/SEG/100013
Plastic
         1     40001     40002     40065     40064
         2     40063     40001     40064     40126
         3     40002     40003     40066     40065
         4     40003     40004     40067     40066
         5     40004     40005     40068     40067
         6     40005     40006     40069     40068
         7     40006     40007     40070     40069
         8     40007     40008     40071     40070
         9     40008     40009     40072     40071
        10     40009     40010     40073     40072
        11     40010     40011     40074     40073
        12     40011     40012     40075     40074
        13     40012     40013     40076     40075
        14     40013     40014     40077     40076
        15     40014     40015     40078     40077
        16     40015     40016     40079     40078
        17     40016     40017     40080     40079
        18     40017     40018     40081     40080
        19     40018     40019     40082     40081
        20     40019     40020     40083     40082
# ... 7981 like lines cut
#---1----|----2----|----3----|----4----|----5----|----6----|----7----|----8----|----9----|---10----|
#- 10. INTERFACES:
#---1----|----2----|----3----|----4----|----5----|----6----|----7----|----8----|----9----|---10----|
/INTER/TYPE7/1
PLASTIC_INTER
#  Slav_id   Mast_id      Istf      Ithe      Igap                Ibag      Idel     Icurv      Iadm
    100006    100008         4         0         2                   0         0         0         0
#          Fscalegap             GAP_MAX             Fpenmax
                 .95                   0                   0
#              Stmin               Stmax          %mesh_size               dtmin  Irem_gap
                   0                   0                   0                   0         0
#              Stfac                Fric              Gapmin              Tstart               Tstop
                  .1                  .7                 .01                   0                   0
#      IBC                        Inacti                VisS                VisF              Bumult
       000                             5                   0                   0                   0
#    Ifric    Ifiltr               Xfreq     Iform   sens_ID
         0         0                   0         2         0
/GRNOD/PART/100006
INTER_group_100006_of_PART
         3
/SURF/PART/100008
INTER_group_100008_of_PART
         1         2
#---1----|----2----|----3----|----4----|----5----|----6----|----7----|----8----|----9----|---10----|
/INTER/TYPE7/2
PLASTIC_INTER_sym
#  Slav_id   Mast_id      Istf      Ithe      Igap                Ibag      Idel     Icurv      Iadm
    100009    100011         4         0         2                   0         0         0         0
#          Fscalegap             GAP_MAX             Fpenmax
                 .95                   0                   0
#              Stmin               Stmax          %mesh_size               dtmin  Irem_gap
                   0                   0                   0                   0         0
#              Stfac                Fric              Gapmin              Tstart               Tstop
                  .1                  .7                 .01                   0                   0
#      IBC                        Inacti                VisS                VisF              Bumult
       000                             5                   0                   0                   0
#    Ifric    Ifiltr               Xfreq     Iform   sens_ID
         0         0                   0         2         0
/GRNOD/PART/100009
INTER_group_100009_of_PART
         1         2
/SURF/PART/100011
INTER_group_100011_of_PART
         3
#---1----|----2----|----3----|----4----|----5----|----6----|----7----|----8----|----9----|---10----|
/INTER/TYPE7/3
PLASTIC_self
#  Slav_id   Mast_id      Istf      Ithe      Igap                Ibag      Idel     Icurv      Iadm
    100006    100011         4         0         0                   0         0         0         0
#          Fscalegap             GAP_MAX             Fpenmax
                   0                   0                   0
#              Stmin               Stmax          %mesh_size               dtmin  Irem_gap
                   0                   0                   0                   0         0
#              Stfac                Fric              Gapmin              Tstart               Tstop
                  10                  .7                 1.4                   0                   0
#      IBC                        Inacti                VisS                VisF              Bumult
       000                             1                   0                   0                   0
#    Ifric    Ifiltr               Xfreq     Iform   sens_ID
         0         0                   0         2         0
#---1----|----2----|----3----|----4----|----5----|----6----|----7----|----8----|----9----|---10----|
#- 11. RIGID BODIES:
#---1----|----2----|----3----|----4----|----5----|----6----|----7----|----8----|----9----|---10----|
/RBODY/1
TOOL1
#     RBID     ISENS     NSKEW    ISPHER                MASS   Gnod_id     IKREM      ICOG   Surf_id
     64137         0         0         0                   0    100002         0         0         0
#                Jxx                 Jyy                 Jzz
                   0                   0                   0
#                Jxy                 Jyz                 Jxz
                   0                   0                   0
#Ioptoff
         0
/GRNOD/PART/100002
RBODY_group_100002_of_PART
         1
#---1----|----2----|----3----|----4----|----5----|----6----|----7----|----8----|----9----|---10----|
/RBODY/2
TOOL2
#     RBID     ISENS     NSKEW    ISPHER                MASS   Gnod_id     IKREM      ICOG   Surf_id
     64138         0         0         0                   0    100003         0         0         0
#                Jxx                 Jyy                 Jzz
                   0                   0                   0
#                Jxy                 Jyz                 Jxz
                   0                   0                   0
#Ioptoff
         0
/GRNOD/PART/100003
RBODY_group_100003_of_PART
         2
#---1----|----2----|----3----|----4----|----5----|----6----|----7----|----8----|----9----|---10----|
#- 12. IMPOSED DISPLACEMENTS:
#---1----|----2----|----3----|----4----|----5----|----6----|----7----|----8----|----9----|---10----|
/IMPDISP/2
TOOL2_MOV
#   Ifunct       DIR     Iskew   Isensor   Gnod_id     Frame     Icoor
       101         Z         0         0    100005         0         0
#            Scale_x             Scale_y              Tstart               Tstop
                   0               -14.5                   0                   0
/GRNOD/NODE/100005
IMPDISP_group_100005_of_NODE
     64138
#---1----|----2----|----3----|----4----|----5----|----6----|----7----|----8----|----9----|---10----|
/IMPDISP/14
TOOL1_MOV
#   Ifunct       DIR     Iskew   Isensor   Gnod_id     Frame     Icoor
       101         Z         0         0    100004         0         0
#            Scale_x             Scale_y              Tstart               Tstop
                   0                14.5                   0                   0
/GRNOD/NODE/100004
IMPDISP_group_100004_of_NODE
     64137
#---1----|----2----|----3----|----4----|----5----|----6----|----7----|----8----|----9----|---10----|
#- 13. TIME HISTORIES:
#---1----|----2----|----3----|----4----|----5----|----6----|----7----|----8----|----9----|---10----|
/TH/INTER/1
TH INTER
#     var1      var2      var3      var4      var5      var6      var7      var8      var9     var10
DEF       
#     Obj1      Obj2      Obj3      Obj4      Obj5      Obj6      Obj7      Obj8      Obj9     Obj10
         1         2
#---1----|----2----|----3----|----4----|----5----|----6----|----7----|----8----|----9----|---10----|
/END
#---1----|----2----|----3----|----4----|----5----|----6----|----7----|----8----|----9----|---10----|
