#RADIOSS STARTER
#--------------------------------------------------------------------------------------------------|
#- RADIOSS DECK WRITTEN BY HyperCrash
#HyperCrash 2021.2 (64 bits) 
#Wed Sep 29 18:08:30 2021
#-
#-
#- DATE	Wed Sep 29 18:08:30 2021
#--------------------------------------------------------------------------------------------------|
#---1----|----2----|----3----|----4----|----5----|----6----|----7----|----8----|----9----|---10----|
/BEGIN
CONTACT_TYPE11                                                                  
      2021         0
                  Mg                  mm                   s
                  Mg                  mm                   s
#---1----|----2----|----3----|----4----|----5----|----6----|----7----|----8----|----9----|---10----|
#-  1. CONTROL CARDS:
#---1----|----2----|----3----|----4----|----5----|----6----|----7----|----8----|----9----|---10----|
/TITLE

#---1----|----2----|----3----|----4----|----5----|----6----|----7----|----8----|----9----|---10----|
/ANALY
#    N2D3D             IPARITH      ISUB
         0                   0         0
#---1----|----2----|----3----|----4----|----5----|----6----|----7----|----8----|----9----|---10----|
/DEF_SHELL
#   ISHELL    ISMSTR    ITHICK     IPLAS   ISTRAIN                        I_SH3N     IDRIL
         0         0         0         0         0                             0         0
#---1----|----2----|----3----|----4----|----5----|----6----|----7----|----8----|----9----|---10----|
/DEF_SOLID
#  I_SOLID    ISMSTR     ICPRE             ITETRA4  ITETRA10      IMAS    IFRAME
         0         0         0                   0         0         0         0
#---1----|----2----|----3----|----4----|----5----|----6----|----7----|----8----|----9----|---10----|
/IOFLAG
#     IPRI               IGTYP     IOUTP    IOUTYY   IROOTYY     IDROT
         0                   0         0         0         0         0
#---1----|----2----|----3----|----4----|----5----|----6----|----7----|----8----|----9----|---10----|
#-  2. NODES:
#---1----|----2----|----3----|----4----|----5----|----6----|----7----|----8----|----9----|---10----|
/NODE
       607                   0                   0                   0
       608                  10                   0                   0
       609                  20                   0                   0
       610                  30                   0                   0
       611                  40                   0                   0
       612                  50                   0                   0
       613                  60                   0                   0
       614                  70                   0                   0
       615                  80                   0                   0
       616                  90                   0                   0
       617                 100                   0                   0
       618                 110                   0                   0
       619                 120                   0                   0
       620                 130                   0                   0
       621                 140                   0                   0
       622                 150                   0                   0
       623                 160                   0                   0
       624                 170                   0                   0
       625                 180                   0                   0
       626                 190                   0                   0
# ... 663 like lines cut
#---1----|----2----|----3----|----4----|----5----|----6----|----7----|----8----|----9----|---10----|
#-  3. BOUNDARY CONDITIONS:
#---1----|----2----|----3----|----4----|----5----|----6----|----7----|----8----|----9----|---10----|
/BCS/1
Anchorage
#  Tra rot   skew_ID  grnod_ID
   111 111         0         4
/GRNOD/NODE/4
Anchorage
      1289
#---1----|----2----|----3----|----4----|----5----|----6----|----7----|----8----|----9----|---10----|
#-  4. PARTS:
#---1----|----2----|----3----|----4----|----5----|----6----|----7----|----8----|----9----|---10----|
/PART/2
Beams
         2         1         0
#---1----|----2----|----3----|----4----|----5----|----6----|----7----|----8----|----9----|---10----|
# TRUSS elements of /PART/2/Beams:
#---1----|----2----|----3----|----4----|----5----|----6----|----7----|----8----|----9----|---10----|
/TRUSS/2
       601       607       608
       602       608       609
       603       609       610
       604       610       611
       605       611       612
       606       612       613
       607       613       614
       608       614       615
       609       615       616
       610       616       617
       611       617       618
       612       618       619
       613       619       620
       614       620       621
       615       621       622
       616       622       623
       617       623       624
       618       624       625
       619       625       626
       620       626       627
# ... 640 like lines cut
#---1----|----2----|----3----|----4----|----5----|----6----|----7----|----8----|----9----|---10----|
#-  5. GEOMETRICAL SETS:
#---1----|----2----|----3----|----4----|----5----|----6----|----7----|----8----|----9----|---10----|
/PROP/TRUSS/2
Trusses
#               Area             Gap_ini
                  10                   0
#---1----|----2----|----3----|----4----|----5----|----6----|----7----|----8----|----9----|---10----|
#-  6. GRAVITIES:
#---1----|----2----|----3----|----4----|----5----|----6----|----7----|----8----|----9----|---10----|
/GRAV/1
All
#funct_IDT       DIR   skew_ID sensor_ID  grnod_ID                      Ascale_x            Fscale_Y
         1         Z         0         0         1                             1               -9810
/GRNOD/GENE/1
All
         1 999999999
#---1----|----2----|----3----|----4----|----5----|----6----|----7----|----8----|----9----|---10----|
#- 16. FUNCTIONS:
#---1----|----2----|----3----|----4----|----5----|----6----|----7----|----8----|----9----|---10----|
/FUNCT/1
Gravity
#                  X                   Y
                   0                   1
                   1                   1
#---1----|----2----|----3----|----4----|----5----|----6----|----7----|----8----|----9----|---10----|
#-  7. INTERFACES:
#---1----|----2----|----3----|----4----|----5----|----6----|----7----|----8----|----9----|---10----|
/INTER/TYPE11/1
Edge to edge contact
# Line_IDs  Line_IDm      Istf      Ithe      Igap            Irem_gap      Idel
         4         0         4         0         0                   0         1
#              Stmin               Stmax          %mesh_size               dtmin     Iform   Sens_Id
                   0                   0                   0                   0         2         0
#              Stfac                Fric                 Gap              Tstart               Tstop
                   0                  .2                   1                   0                   0
#      IBC                        Inacti                VisS                VisF              Bumult
       000                             0                   0                   0                   0
#                                                                                            fric_ID
                                                                                                   0
/LINE/LINE/4
Edge to edge contact
         2         3
/LINE/SURF/2
Edge to edge contact
         1
/SURF/PART/1
Edge to edge contact
         3
/LINE/PART/3
Edge to edge contact
         2
#---1----|----2----|----3----|----4----|----5----|----6----|----7----|----8----|----9----|---10----|
#-  8. RIGID BODIES:
#---1----|----2----|----3----|----4----|----5----|----6----|----7----|----8----|----9----|---10----|
/RBODY/1
Anchorage
#     RBID     ISENS     NSKEW    ISPHER                MASS   Gnod_id     IKREM      ICOG   Surf_id
      1289         0         0         0                   0         3         0         0         0
#                Jxx                 Jyy                 Jzz
                   0                   0                   0
#                Jxy                 Jyz                 Jxz
                   0                   0                   0
#  Ioptoff               Ifail
         0         0         0
/GRNOD/NODE/3
Anchorage
       607       608       609       610       611       612       613       614       615       616
       617       618       619       620       621       622       623       624       625       626
       627       628       629       630       631       632       633       634       635       636
       637       638       668       669       699       700       730       731       761       762
       792       793       823       824       854       855       885       886       916       917
       918       919       920       921       922       923       924       925       926       927
       928       929       930       931       932       933       934       935       936       937
       938       939       940       941       942       943       944       945       946       947
       948       949       950       951       952       953       954       955       956       957
       958       959       960       961       962       963       964       965       966       967
       968       969       970       971       972       973       974       975       976       977
       978       979      1009      1010      1040      1041      1071      1072      1102      1103
      1133      1134      1164      1165      1195      1196      1226      1227      1257      1258
      1259      1260      1261      1262      1263      1264      1265      1266      1267      1268
      1269      1270      1271      1272      1273      1274      1275      1276      1277      1278
      1279      1280      1281      1282      1283      1284      1285      1286      1287      1288
#---1----|----2----|----3----|----4----|----5----|----6----|----7----|----8----|----9----|---10----|
#-  9. ADDED MASSES:
#---1----|----2----|----3----|----4----|----5----|----6----|----7----|----8----|----9----|---10----|
/ADMAS/4/1
Mass
#               MASS Grpart_ID     IFLAG
                 .01         1         1
/GRPART/PART/1
Mass
         3
#---1----|----2----|----3----|----4----|----5----|----6----|----7----|----8----|----9----|---10----|
#- 10. TRANSFORMATIONS:
#---1----|----2----|----3----|----4----|----5----|----6----|----7----|----8----|----9----|---10----|
/TRANSFORM/ROT/1
Rotation
# grnod_ID           X_point_1           Y_point_1           Z_point_1  node_ID1  node_ID2    Sub_Id
         0                   0                   0                   0         5       145         2
#                    X_point_2           Y_point_2           Z_point_2               Angle
                             0                   0                   0                  45
#---1----|----2----|----3----|----4----|----5----|----6----|----7----|----8----|----9----|---10----|
/TRANSFORM/TRA/2
Transalation
# grnod_ID       X_translation       Y_translation       Z_translation  node_ID1  node_ID2    Sub_Id
         0                 350                  70                   2         0         0         2
#---1----|----2----|----3----|----4----|----5----|----6----|----7----|----8----|----9----|---10----|
#- 11. TIME HISTORIES:
#---1----|----2----|----3----|----4----|----5----|----6----|----7----|----8----|----9----|---10----|
/TH/NODE/1
TH NODE
#     var1      var2      var3      var4      var5      var6      var7      var8      var9     var10
DEF       
#    NODid     Iskew                                           NODname
      1289         0                                                                                
#---1----|----2----|----3----|----4----|----5----|----6----|----7----|----8----|----9----|---10----|
/TH/RBODY/2
TH RBODY
#     var1      var2      var3      var4      var5      var6      var7      var8      var9     var10
DEF       
#     Obj1      Obj2      Obj3      Obj4      Obj5      Obj6      Obj7      Obj8      Obj9     Obj10
         1
#---1----|----2----|----3----|----4----|----5----|----6----|----7----|----8----|----9----|---10----|
/TH/INTER/3
TH INTER
#     var1      var2      var3      var4      var5      var6      var7      var8      var9     var10
DEF       
#     Obj1      Obj2      Obj3      Obj4      Obj5      Obj6      Obj7      Obj8      Obj9     Obj10
         1
#---1----|----2----|----3----|----4----|----5----|----6----|----7----|----8----|----9----|---10----|
//SUBMODEL/2
# sub-model title
Submodel_1
#  Off_dft   Off_nod   Off_elt  Off_part   Off_mat  Off_prop  Off_subm
         0         0         0         0         0         0         0
#- 12. MATERIALS:
#---1----|----2----|----3----|----4----|----5----|----6----|----7----|----8----|----9----|---10----|
/MAT/ELAST/1
Steel
#              RHO_I
              7.8E-9                   0
#                  E                  nu
              210000                  .3
#---1----|----2----|----3----|----4----|----5----|----6----|----7----|----8----|----9----|---10----|
#- 13. NODES:
#---1----|----2----|----3----|----4----|----5----|----6----|----7----|----8----|----9----|---10----|
/NODE
         5                -200                   0                   0
         6                -200                  10                   0
         7                -200                  20                   0
         8                -200                  30                   0
         9                -200                  40                   0
        10                -200                  50                   0
        11                -200                  60                   0
        12                -200                  70                   0
        13                -200                  80                   0
        14                -200                  90                   0
        15                -200                 100                   0
        16                -190                 100                   0
        17                -180                 100                   0
        18                -170                 100                   0
        19                -160                 100                   0
        20                -150                 100                   0
        21                -140                 100                   0
        22                -130                 100                   0
        23                -120                 100                   0
        24                -110                 100                   0
# ... 582 like lines cut
#---1----|----2----|----3----|----4----|----5----|----6----|----7----|----8----|----9----|---10----|
#- 14. PARTS:
#---1----|----2----|----3----|----4----|----5----|----6----|----7----|----8----|----9----|---10----|
/PART/3
Cube
         1         1         0
#---1----|----2----|----3----|----4----|----5----|----6----|----7----|----8----|----9----|---10----|
# SHELL elements of /PART/3/Cube:
#---1----|----2----|----3----|----4----|----5----|----6----|----7----|----8----|----9----|---10----|
/SHELL/3
         1        59        62        63        58
         2        58        63        54        55
         3        62        47        48        63
         4        63        48        49        54
         5        60        64        62        59
         6        64        46        47        62
         7        61        65        64        60
         8        65        45        46        64
         9        28        29        65        61
        10        29        30        45        65
        11        22        66        68        21
        12        21        68        57        20
        13        58        69        67        59
        14        69        68        66        67
        15        55        56        69        58
        16        56        57        68        69
        17        25        26        70        24
        18        24        70        71        23
        19        23        71        66        22
        20        61        72        27        28
# ... 580 like lines cut
#---1----|----2----|----3----|----4----|----5----|----6----|----7----|----8----|----9----|---10----|
#- 15. GEOMETRICAL SETS:
#---1----|----2----|----3----|----4----|----5----|----6----|----7----|----8----|----9----|---10----|
/PROP/SHELL/1
Shell_1mm
#   Ishell    Ismstr     Ish3n    Idrill                            P_thick_fail
        24         0         0         0                                       0
#                 hm                  hf                  hr                  dm                  dn
                   0                   0                   0                   0                   0
#        N   Istrain               Thick              Ashear              Ithick     Iplas
         5         0                   1                   0                   1         1
#---1----|----2----|----3----|----4----|----5----|----6----|----7----|----8----|----9----|---10----|
//ENDSUB
#---1----|----2----|----3----|----4----|----5----|----6----|----7----|----8----|----9----|---10----|
/END
#---1----|----2----|----3----|----4----|----5----|----6----|----7----|----8----|----9----|---10----|
