#RADIOSS STARTER
/BEGIN
NOTCH - double-edge-notch tension, LAW36 + /FAIL/BIQUAD
/NODE
         1        0.0000000000        0.0000000000        0.0000000000
         2        1.0000000000        0.0000000000        0.0000000000
         3        2.0000000000        0.0000000000        0.0000000000
         4        3.0000000000        0.0000000000        0.0000000000
         5        4.0000000000        0.0000000000        0.0000000000
         6        5.0000000000        0.0000000000        0.0000000000
         7        6.0000000000        0.0000000000        0.0000000000
         8        7.0000000000        0.0000000000        0.0000000000
         9        8.0000000000        0.0000000000        0.0000000000
        10        9.0000000000        0.0000000000        0.0000000000
        11       10.0000000000        0.0000000000        0.0000000000
        12       11.0000000000        0.0000000000        0.0000000000
        13       12.0000000000        0.0000000000        0.0000000000
        14       13.0000000000        0.0000000000        0.0000000000
        15       14.0000000000        0.0000000000        0.0000000000
        16       15.0000000000        0.0000000000        0.0000000000
        17       16.0000000000        0.0000000000        0.0000000000
        18       17.0000000000        0.0000000000        0.0000000000
        19       18.0000000000        0.0000000000        0.0000000000
        20       19.0000000000        0.0000000000        0.0000000000
# ... 211 like lines cut
/SHELL/1
         1         1         2        23        22
         2         2         3        24        23
         3         3         4        25        24
         4         4         5        26        25
         5         5         6        27        26
         6         6         7        28        27
         7         7         8        29        28
         8         8         9        30        29
         9         9        10        31        30
        10        10        11        32        31
        11        11        12        33        32
        12        12        13        34        33
        13        13        14        35        34
        14        14        15        36        35
        15        15        16        37        36
        16        16        17        38        37
        17        17        18        39        38
        18        18        19        40        39
        19        19        20        41        40
        20        20        21        42        41
# ... 174 like lines cut
/PART/1
notched plate
         1         1
/MAT/LAW36/1
mild steel, tabulated hardening
    7.8e-6
     210.0       0.3
         1         0
        11
/FUNCT/11
sy(eps_p): 0.25 -> 0.40 GPa at 40%, then flat
       0.0      0.25
       0.4      0.40
      10.0      0.40
/FAIL/BIQUAD/1
      0.60      0.45      0.35      0.25      0.30
/PROP/SHELL/1
plate t=1
         1         0         0         0
      0.01      0.01      0.01         0         0
         3         0       1.0
/GRNOD/NODE/1
bottom edge
1 2 3 4 5 6 7 8 9 10 11 12 13 14 15 16 17 18 19 20 21
/GRNOD/NODE/2
top edge
211 212 213 214 215 216 217 218 219 220 221 222 223 224 225 226 227 228 229 230 231
/BCS/1
clamp bottom edge
       111       111         0         1
/FUNCT/1
velocity ramp
       0.0       0.0
     0.020       1.0
     100.0       1.0
/IMPVEL/1
pull top edge in +Y
         1         Y         2     2.000
/SURF/PART/1
whole plate
         1
/INTER/TYPE7/1
plate self-impact
         0         1         2         1
       1.0       0.0       0.0       0.5
/TH/NODE/1
top corner
DY VY
211
/TH/PART/2
plate energies
IE KE
1
/END
