#RADIOSS STARTER
#--------------------------------------------------------------------------------------------------|
#- RADIOSS DECK WRITTEN BY HyperCrash
#HyperCrash 14.0 (64 bits) 
#Mon Dec 21 14:55:28 2015
#-
#--------------------------------------------------------------------------------------------------|
#- RADIOSS DECK WRITTEN BY HyperCrash
#HyperCrash 10.0 SA2 (64 bits)
#Tue Jul 20 10:37:07 2010
#-
#
#
#-
#- DATE	Tue Jul 20 10:37:07 2010
#--------------------------------------------------------------------------------------------------|
#---1----|----2----|----3----|----4----|----5----|----6----|----7----|----8----|----9----|---10----|
#-
#- DATE	Mon Dec 21 14:55:28 2015
#--------------------------------------------------------------------------------------------------|
#---1----|----2----|----3----|----4----|----5----|----6----|----7----|----8----|----9----|---10----|
/BEGIN
SHPB_L                                                                          
       140         0
                   g                  mm                  ms
                   g                  mm                  ms
#---1----|----2----|----3----|----4----|----5----|----6----|----7----|----8----|----9----|---10----|
#-  1. CONTROL CARDS:
#---1----|----2----|----3----|----4----|----5----|----6----|----7----|----8----|----9----|---10----|
/TITLE
UNKNOW
#---1----|----2----|----3----|----4----|----5----|----6----|----7----|----8----|----9----|---10----|
/ANALY
#    N2D3D             IPARITH      ISUB
         1                   0         0
#---1----|----2----|----3----|----4----|----5----|----6----|----7----|----8----|----9----|---10----|
/DEF_SHELL
#   ISHELL    ISMSTR    ITHICK     IPLAS   ISTRAIN                        I_SH3N     IDRIL
         0         0         0         0         0                             1         0
#---1----|----2----|----3----|----4----|----5----|----6----|----7----|----8----|----9----|---10----|
/DEF_SOLID
#  I_SOLID    ISMSTR             ISTRAIN                                  IFRAME
         2         0                   0                                       0
#---1----|----2----|----3----|----4----|----5----|----6----|----7----|----8----|----9----|---10----|
/IOFLAG
#     IPRI               IGTYP     IOUTP    IOUTYY   IROOTYY     IDROT
         1                   0         0         0         0         0
#---1----|----2----|----3----|----4----|----5----|----6----|----7----|----8----|----9----|---10----|
/SHFRA/V4
#---1----|----2----|----3----|----4----|----5----|----6----|----7----|----8----|----9----|---10----|
/SPMD
#   DOMDEC     Nproc              Dkword             Nthread
         0         0                   0                   1
#---1----|----2----|----3----|----4----|----5----|----6----|----7----|----8----|----9----|---10----|
#-  2. MATERIALS:
#---1----|----2----|----3----|----4----|----5----|----6----|----7----|----8----|----9----|---10----|
/MAT/PLAS_JOHNS/1
Specimen
#              RHO_I
               .0028               .0028
#                  E                  Nu
               73000                 .33
#                  a                   b                   n           EPS_p_max            SIG_max0
                 496                 225                 .35                 .45                1000
#                  c           EPS_DOT_0       ICC   Fsmooth               F_cut               Chard
                 .16                 .08         0         1                  30                   0
#                  m              T_melt              rhoC_p                 T_r
                   0                   0                   0                   0
#---1----|----2----|----3----|----4----|----5----|----6----|----7----|----8----|----9----|---10----|
/MAT/ELAST/2
Bars
#              RHO_I
               .0078               .0078
#                  E                  nu
              210000                  .3
#---1----|----2----|----3----|----4----|----5----|----6----|----7----|----8----|----9----|---10----|
/MAT/ELAST/3
Striker
#              RHO_I
                 .01                 .01
#                  E                  nu
              210000                   0
#---1----|----2----|----3----|----4----|----5----|----6----|----7----|----8----|----9----|---10----|
#-  3. NODES:
#---1----|----2----|----3----|----4----|----5----|----6----|----7----|----8----|----9----|---10----|
/NODE
         1                   0                   2      1.11022303E-16
         2                   0                   4                  -8
         3                   0                   0                  -8
         4                   0                   0                   0
         5                   0                   2         -.959095934
         6                   0                   2         -1.91819187
         7                   0                   2          -2.8772878
         8                   0                   2         -3.83638373
         9                   0          2.06499467         -4.79254726
        10                   0          2.31632752         -5.71609404
        11                   0          2.73267093         -6.57702415
        12                   0          3.30012259         -7.34685955
        13                   0                  .5                   0
        14                   0                   1      1.11022303E-16
        15                   0                 1.5      1.11022303E-16
        16                   0                   1                  -8
        17                   0                   2                  -8
        18                   0                   3                  -8
        19                   0                   0         -.888888889
        20                   0                   0         -1.77777778
# ... 28093 like lines cut
#---1----|----2----|----3----|----4----|----5----|----6----|----7----|----8----|----9----|---10----|
#-  4. BOUNDARY CONDITIONS:
#---1----|----2----|----3----|----4----|----5----|----6----|----7----|----8----|----9----|---10----|
/BCS/2
Axis
#  Tra rot   skew_ID  grnod_ID
   010 100         0        38
/GRNOD/NODE/38
New GRNOD 37 _nodes_subsubgroup_
         3         4        19        20        21        22        23        24        25        26
        61        63        77        80        90       107       109       111       134       146
       147       157       158       177       179       181       194       206       208       210
       213       214       220       262       274       275       286       305       307       308
       309       312       334       355       358       359       360       362       379       381
       382       392       393       439       445       446       450       459       463       472
       484       486       488       493       500       542       554       555       566       585
       587       588       589       592       614       635       638       639       640       642
       659       661       662       672       673       720       733       734       739       741
       743       761       764       768       776       777       781       788       822       834
       835       843       845       876       877       879       900       903       904       905
       907       924       926       927       937       938       972       986       992       993
       997      1010      1019      1031      1033      1035      1040      1047      1080      1100
      1112      1113      1124      1145      1147      1148      1149      1152      1174      1195
      1198      1199      1200      1202      1219      1223      1224      1234      1235      1265
      1267      1268      1293      1306      1307      1312      1314      1316      1334      1337
      1341      1349      1350      1354      1361      1375      1397      1409      1410      1422
      1441      1443      1444      1445      1448      1471      1472      1481      1503      1505
      1513      1514      1560      1566      1567      1571      1580      1584      1593      1605
      1607      1609      1614      1621      1663      1678      1695      1702      1715      1716
# ... 382 like lines cut
#---1----|----2----|----3----|----4----|----5----|----6----|----7----|----8----|----9----|---10----|
/BCS/3
Fixing
#  Tra rot   skew_ID  grnod_ID
   001 000         0        33
/GRNOD/NODE/33
New GRNOD 32 _nodes_subsubgroup_
     19043     19050     19056     19071     19080     19082     19083
#---1----|----2----|----3----|----4----|----5----|----6----|----7----|----8----|----9----|---10----|
#-  5. PARTS:
#---1----|----2----|----3----|----4----|----5----|----6----|----7----|----8----|----9----|---10----|
/PART/1
Specimen
         1         1         0
#---1----|----2----|----3----|----4----|----5----|----6----|----7----|----8----|----9----|---10----|
# QUAD elements of /PART/1/Specimen:
#---1----|----2----|----3----|----4----|----5----|----6----|----7----|----8----|----9----|---10----|
/QUAD/1
        37         2        12        27        18
        38        12        11        30        27
        39        11        10        33        30
        40        10         9        36        33
        41         9         8        39        36
        42         8         7        42        39
        43         7         6        45        42
        44         6         5        48        45
        45         5         1        15        48
        46        48        15        14        49
        47        48        49        46        45
        48        45        46        43        42
        49        42        43        40        39
        50        39        40        37        36
        51        36        37        34        33
        52        33        34        31        30
        53        30        31        28        27
        54        18        27        28        17
        55        17        28        29        16
        56        28        31        32        29
# ... 52 like lines cut
#---1----|----2----|----3----|----4----|----5----|----6----|----7----|----8----|----9----|---10----|
/PART/2
Transmitted_bar
         1         2         0
#---1----|----2----|----3----|----4----|----5----|----6----|----7----|----8----|----9----|---10----|
# QUAD elements of /PART/2/Transmitted_bar:
#---1----|----2----|----3----|----4----|----5----|----6----|----7----|----8----|----9----|---10----|
/QUAD/2
        73        53        52        51        54
        74        54        51         2        55
        75        55         2        18        56
        76        56        18        17        57
        77        57        17        16        60
        78        60        16         3        61
        79        68        53        54        69
        80        62        60        61        63
        81        66        56        57        71
        82        65        55        56        66
        83        71        57        60        62
        84        69        54        55        65
        85        74        83        88        78
        86        73        82        83        74
        87        72        86        82        73
        88        78        88        79        76
        89        76        79        80        77
        90        75        85        86        72
        91        85        68        69        86
        92        79        62        63        80
# ... 11980 like lines cut
#---1----|----2----|----3----|----4----|----5----|----6----|----7----|----8----|----9----|---10----|
/PART/3
Incident_bar
         1         2         0
#---1----|----2----|----3----|----4----|----5----|----6----|----7----|----8----|----9----|---10----|
# QUAD elements of /PART/3/Incident_bar:
#---1----|----2----|----3----|----4----|----5----|----6----|----7----|----8----|----9----|---10----|
/QUAD/3
      6253      9081      9070      9083      9066
      6254      9067      9068      9086      9084
      6255      9066      9083      9082      9065
      6256      9065      9082      9068      9067
      6257      9132      9138      9143      9133
      6258      9118      9115      9138      9132
      6259      9145      9119      9123      9127
      6260      9084      9086      9085      9064
      6261      9069      9080      9070      9081
      6262      9080      9094      9098      9070
      6263      9086      9093      9092      9085
      6264      9068      9091      9093      9086
      6265      9070      9098      9097      9083
      6266      9083      9097      9096      9082
      6267      9082      9096      9091      9068
      6268      9096      9105      9095      9091
      6269      9091      9095      9107      9093
      6270      9099      9104      9101      9102
      6271      9095      9108      9103      9107
      6272      9093      9107      9090      9092
# ... 11968 like lines cut
#---1----|----2----|----3----|----4----|----5----|----6----|----7----|----8----|----9----|---10----|
/PART/6
Striker
         1         3         0
#---1----|----2----|----3----|----4----|----5----|----6----|----7----|----8----|----9----|---10----|
# QUAD elements of /PART/6/Striker:
#---1----|----2----|----3----|----4----|----5----|----6----|----7----|----8----|----9----|---10----|
/QUAD/6
     24253     31856     31838     31852     31844
     24254     31845     31844     31852     31851
     24255     31846     31845     31851     31853
     24256     31847     31846     31853     31854
     24257     31848     31847     31854     31850
     24258     31849     31848     31850     31855
     24259     31856     31857     31837     31838
     24260     31857     31858     31840     31837
     24261     31858     31859     31841     31840
     24262     31859     31860     31843     31841
     24263     31860     31861     31842     31843
     24264     31862     31839     31842     31861
#---1----|----2----|----3----|----4----|----5----|----6----|----7----|----8----|----9----|---10----|
#-  6. GEOMETRICAL SETS:
#---1----|----2----|----3----|----4----|----5----|----6----|----7----|----8----|----9----|---10----|
/PROP/SOLID/1
Quad
#   Isolid    Ismstr               Icpre               Inpts    Itetra    Iframe                  dn
         0         0                   0                   0         0         0                   0
#                q_a                 q_b                   h            LAMBDA_V                MU_V
                   0                   0                   0                   0                   0
#             dt_min   istrain      IHKT
                   0         0         0
#---1----|----2----|----3----|----4----|----5----|----6----|----7----|----8----|----9----|---10----|
#-  7. FUNCTIONS:
#---1----|----2----|----3----|----4----|----5----|----6----|----7----|----8----|----9----|---10----|
/FUNCT/3
Imposed_velocities
#                  X                   Y
                   0                 1.7                                                            
                  .1                 1.7                                                            
                 1.1                 1.7                                                            
                   2                 1.7                                                            
#---1----|----2----|----3----|----4----|----5----|----6----|----7----|----8----|----9----|---10----|
#-  8. IMPOSED VELOCITIES:
#---1----|----2----|----3----|----4----|----5----|----6----|----7----|----8----|----9----|---10----|
/IMPVEL/1
Constant
#funct_IDT       Dir   skew_ID sensor_ID  grnod_ID  frame_ID     Icoor
         3         Z         0         0        40         0         0
#           Ascale_x            Fscale_Y              Tstart               Tstop
                   1                   1                   0                   0
/GRNOD/NODE/40
New GRNOD 39 _nodes_subsubgroup_
     30573     30574     30575     30582     31046     31057     31076     31837     31838     31839
     31840     31841     31842     31843     31844     31845     31846     31847     31848     31849
     31850     31851     31852     31853     31854     31855     31856     31857     31858     31859
     31860     31861     31862
#---1----|----2----|----3----|----4----|----5----|----6----|----7----|----8----|----9----|---10----|
#-  9. NODE GROUPS:
#---1----|----2----|----3----|----4----|----5----|----6----|----7----|----8----|----9----|---10----|
/GRNOD/NODE/25
NULL
     10621     10629     10631     10632     10635     10657     10672
#---1----|----2----|----3----|----4----|----5----|----6----|----7----|----8----|----9----|---10----|
/GRNOD/NODE/26
NULL
     10011     10619     10620     10621     10622     10624     10625     10626     10627     10628
     10629     10631     10632     10633     10634     10635     10637     10647     10648     10649
     10652     10654     10655     10656     10657     10659     10660     10661     10666     10667
     10670     10672     10675     10677     13648
#---1----|----2----|----3----|----4----|----5----|----6----|----7----|----8----|----9----|---10----|
/GRNOD/NODE/31
NULL
      7243      7245      7246      7247      7248      7249      7250      7262      7264      7265
      7266      7293      7294      7295      7296      7297      7298      7299      7300      7301
      7302      7303      7304      7305      7306      7308      7309      7310     24050     24051
     24362     24363     24369     24370     24415     24431     24432     24433     24434     24437
     24438     24534
#---1----|----2----|----3----|----4----|----5----|----6----|----7----|----8----|----9----|---10----|
/GRNOD/NODE/36
NULL
     10621     10629     10631     10632     10635     10657     10672
#---1----|----2----|----3----|----4----|----5----|----6----|----7----|----8----|----9----|---10----|
#- 10. TIME HISTORIES:
#---1----|----2----|----3----|----4----|----5----|----6----|----7----|----8----|----9----|---10----|
/TH/NODE/1
Medium_node
#     var1      var2      var3      var4      var5      var6      var7      var8      var9     var10
DEF       V         XYZ       
#    NODid     Iskew                                           NODname
         1         0Middel_node_group_0                                                             
#---1----|----2----|----3----|----4----|----5----|----6----|----7----|----8----|----9----|---10----|
/TH/NODE/2
Specimen_high
#     var1      var2      var3      var4      var5      var6      var7      var8      var9     var10
DEF       V         XYZ       
#    NODid     Iskew                                           NODname
      9030         0Specimen_right_group_0                                                          
#---1----|----2----|----3----|----4----|----5----|----6----|----7----|----8----|----9----|---10----|
/TH/NODE/3
Specimen_low
#     var1      var2      var3      var4      var5      var6      var7      var8      var9     var10
DEF       V         XYZ       
#    NODid     Iskew                                           NODname
         2         0Specimen_left_group_0                                                           
#---1----|----2----|----3----|----4----|----5----|----6----|----7----|----8----|----9----|---10----|
/TH/NODE/6
Extremity_low_bar
#     var1      var2      var3      var4      var5      var6      var7      var8      var9     var10
DEF       V         XYZ       
#    NODid     Iskew                                           NODname
      7265         0Extremity_left_bar_group_0                                                      
#---1----|----2----|----3----|----4----|----5----|----6----|----7----|----8----|----9----|---10----|
/TH/PART/8
Transmitted_bar
#     var1      var2      var3      var4      var5      var6      var7      var8      var9     var10
DEF       HE        IE        KE        KERB      MASS      RIE       RKE       
#     Obj1      Obj2      Obj3      Obj4      Obj5      Obj6      Obj7      Obj8      Obj9     Obj10
         2
#---1----|----2----|----3----|----4----|----5----|----6----|----7----|----8----|----9----|---10----|
/TH/PART/9
Incident_bar
#     var1      var2      var3      var4      var5      var6      var7      var8      var9     var10
DEF       HE        IE        KE        MASS      RIE       RKE       
#     Obj1      Obj2      Obj3      Obj4      Obj5      Obj6      Obj7      Obj8      Obj9     Obj10
         3
#---1----|----2----|----3----|----4----|----5----|----6----|----7----|----8----|----9----|---10----|
/TH/PART/10
Specimen
#     var1      var2      var3      var4      var5      var6      var7      var8      var9     var10
DEF       HE        IE        KE        MASS      RIE       RKE       
#     Obj1      Obj2      Obj3      Obj4      Obj5      Obj6      Obj7      Obj8      Obj9     Obj10
         1
#---1----|----2----|----3----|----4----|----5----|----6----|----7----|----8----|----9----|---10----|
/TH/NODE/11
Gauge_length_1
#     var1      var2      var3      var4      var5      var6      var7      var8      var9     var10
DEF       DZ        VY        VZ        Y         Z         
#    NODid     Iskew                                           NODname
        13         0Gauge_length_1_group_0                                                          
      9045         0Gauge_length_1_group_0                                                          
#---1----|----2----|----3----|----4----|----5----|----6----|----7----|----8----|----9----|---10----|
/TH/NODE/13
Gauge_length_2
#     var1      var2      var3      var4      var5      var6      var7      var8      var9     var10
A         DEF       VY        VZ        Y         Z         
#    NODid     Iskew                                           NODname
         6         0Gauge_length_2_group_0                                                          
      9040         0Gauge_length_2_group_0                                                          
#---1----|----2----|----3----|----4----|----5----|----6----|----7----|----8----|----9----|---10----|
/TH/QUAD/14
Center_quads
#     var1      var2      var3      var4      var5      var6      var7      var8      var9     var10
BFRAC     BULK      CAP       CR        DEF       EFIB      IE        ISTA      K0        OFF       
PLAS      PLSR      RK        SA1       SA2       SA3       SFIB      STRESS    SX        SXY       
SXZ       SY        SYZ       SZ        TD        TEMP      VOL       VPLA      WPLA      
#     Elid                                                      Elname
      6224          Center_quads_group_0                                                            
      6235          Center_quads_group_0                                                            
      6243          Center_quads_group_0                                                            
      6244          Center_quads_group_0                                                            
#---1----|----2----|----3----|----4----|----5----|----6----|----7----|----8----|----9----|---10----|
/TH/NODE/15
Bar_high
#     var1      var2      var3      var4      var5      var6      var7      var8      var9     var10
A         DEF       VY        VZ        XYZ       Y         Z         
#    NODid     Iskew                                           NODname
     10672         0Bar_high_group_0                                                                
     17808         0Bar_high_group_0                                                                
#---1----|----2----|----3----|----4----|----5----|----6----|----7----|----8----|----9----|---10----|
/TH/NODE/16
Output_gauge
#     var1      var2      var3      var4      var5      var6      var7      var8      var9     var10
DEF       VZ        Y         Z         
#    NODid     Iskew                                           NODname
        93         0Output_gauge_group_0                                                            
       103         0Output_gauge_group_0                                                            
#---1----|----2----|----3----|----4----|----5----|----6----|----7----|----8----|----9----|---10----|
/END
#---1----|----2----|----3----|----4----|----5----|----6----|----7----|----8----|----9----|---10----|
