#RADIOSS STARTER
#--------------------------------------------------------------------------------------------------|
#- RADIOSS DECK WRITTEN BY HyperCrash
#HyperCrash 14.0 (64 bits) 
#Mon Dec 21 15:13:31 2015
#-
#--------------------------------------------------------------------------------------------------|
#- RADIOSS DECK WRITTEN BY HyperCrash
#HyperCrash 10.0 SA2 (64 bits)
#Tue Jul 20 14:31:21 2010
#-
#--------------------------------------------------------------------------------------------------|
#- RADIOSS DECK / GENERATED BY HELIOSS 3.3.a3
#--------------------------------------------------------------------------------------------------|
#-
#- DATE	Tue Jul 20 14:31:21 2010
#--------------------------------------------------------------------------------------------------|
#---1----|----2----|----3----|----4----|----5----|----6----|----7----|----8----|----9----|---10----|
#-
#- DATE	Mon Dec 21 15:13:31 2015
#--------------------------------------------------------------------------------------------------|
#---1----|----2----|----3----|----4----|----5----|----6----|----7----|----8----|----9----|---10----|
/BEGIN
ROLLING                                                                         
       140         0
                   g                  mm                  ms
                   g                  mm                  ms
#---1----|----2----|----3----|----4----|----5----|----6----|----7----|----8----|----9----|---10----|
#-  1. CONTROL CARDS:
#---1----|----2----|----3----|----4----|----5----|----6----|----7----|----8----|----9----|---10----|
/TITLE
Pure Bending
#---1----|----2----|----3----|----4----|----5----|----6----|----7----|----8----|----9----|---10----|
/ANALY
#    N2D3D             IPARITH      ISUB
         0                   0         0
#---1----|----2----|----3----|----4----|----5----|----6----|----7----|----8----|----9----|---10----|
/DEF_SHELL
#   ISHELL    ISMSTR    ITHICK     IPLAS   ISTRAIN                        I_SH3N     IDRIL
         0         0         0         0         0                             0         0
#---1----|----2----|----3----|----4----|----5----|----6----|----7----|----8----|----9----|---10----|
/DEF_SOLID
#  I_SOLID    ISMSTR             ISTRAIN                                  IFRAME
         0         0                   0                                       0
#---1----|----2----|----3----|----4----|----5----|----6----|----7----|----8----|----9----|---10----|
/IOFLAG
#     IPRI               IGTYP     IOUTP    IOUTYY   IROOTYY     IDROT
         0                   0         0         0         0         0
#---1----|----2----|----3----|----4----|----5----|----6----|----7----|----8----|----9----|---10----|
/SPMD
#   DOMDEC     Nproc              Dkword             Nthread
         0         0                   0                   1
#---1----|----2----|----3----|----4----|----5----|----6----|----7----|----8----|----9----|---10----|
#-  2. MATERIALS:
#---1----|----2----|----3----|----4----|----5----|----6----|----7----|----8----|----9----|---10----|
/MAT/ELAST/102
ELASTIC
#              RHO_I
                 .01                 .01
#                  E                  nu
                1000                   0
#---1----|----2----|----3----|----4----|----5----|----6----|----7----|----8----|----9----|---10----|
#-  3. NODES:
#---1----|----2----|----3----|----4----|----5----|----6----|----7----|----8----|----9----|---10----|
/NODE
       306                  75                   0                   0
       307                  75                   0         -15.1999998
       308                  75                   0         -30.2999992
       309                  75                   0               -45.5
       310                  75                   0         -60.5999985
       311                  75                   0         -75.8000031
       312                  75                   0         -90.9000015
       313                  75                   0         -106.099998
       314                  75                   0         -121.199997
       315                  75                   0         -136.399994
       316                  75                   0              -151.5
       317                  75                   0         -166.699997
       318                  75                   0         -181.800003
       319                  75                   0                -197
       320                  75                   0         -212.100006
       321                  75                   0         -227.300003
       322                  75                   0         -242.399994
       323                  75                   0         -257.600006
       324                  75                   0         -272.700012
       325                  75                   0         -287.899994
# ... 117 like lines cut
#---1----|----2----|----3----|----4----|----5----|----6----|----7----|----8----|----9----|---10----|
#-  4. BOUNDARY CONDITIONS:
#---1----|----2----|----3----|----4----|----5----|----6----|----7----|----8----|----9----|---10----|
/BCS/1
clamp
#  Tra rot   skew_ID  grnod_ID
   111 111         0         2
/GRNOD/NODE/2
New GRNOD 1 _nodes_subsubgroup_
       339       340       341       342
#---1----|----2----|----3----|----4----|----5----|----6----|----7----|----8----|----9----|---10----|
/BCS/2
rot
#  Tra rot   skew_ID  grnod_ID
   000 011         0         6
/GRNOD/NODE/6
n_master
      1020
#---1----|----2----|----3----|----4----|----5----|----6----|----7----|----8----|----9----|---10----|
#-  5. PARTS:
#---1----|----2----|----3----|----4----|----5----|----6----|----7----|----8----|----9----|---10----|
/PART/5
QEPH
       101       102         0
#---1----|----2----|----3----|----4----|----5----|----6----|----7----|----8----|----9----|---10----|
# SHELL elements of /PART/5/QEPH:
#---1----|----2----|----3----|----4----|----5----|----6----|----7----|----8----|----9----|---10----|
/SHELL/5
       101       339       340       378       338                                                 0
       102       338       378       379       337                                                 0
       103       337       379       380       336                                                 0
       104       336       380       381       335                                                 0
       105       335       381       382       334                                                 0
       106       334       382       383       333                                                 0
       107       333       383       384       332                                                 0
       108       332       384       385       331                                                 0
       109       331       385       386       330                                                 0
       110       330       386       387       329                                                 0
       111       329       387       388       328                                                 0
       112       328       388       389       327                                                 0
       113       327       389       390       326                                                 0
       114       326       390       391       325                                                 0
       115       325       391       392       324                                                 0
       116       324       392       393       323                                                 0
       117       323       393       394       322                                                 0
       118       322       394       395       321                                                 0
       119       321       395       396       320                                                 0
       120       320       396       397       319                                                 0
# ... 79 like lines cut
#---1----|----2----|----3----|----4----|----5----|----6----|----7----|----8----|----9----|---10----|
#-  6. GEOMETRICAL SETS:
#---1----|----2----|----3----|----4----|----5----|----6----|----7----|----8----|----9----|---10----|
/PROP/SHELL/101
QEPH
#   Ishell    Ismstr     Ish3n    Idrill
        24         0         0         0
#                 hm                  hf                  hr                  dm                  dn
                   0                   0                   0                   0                   0
#        N   Istrain               Thick              Ashear              Ithick     Iplas
         0         0                  20                   0                   0         0
#---1----|----2----|----3----|----4----|----5----|----6----|----7----|----8----|----9----|---10----|
#-  7. FUNCTIONS:
#---1----|----2----|----3----|----4----|----5----|----6----|----7----|----8----|----9----|---10----|
/FUNCT/5
lineaire
#                  X                   Y
                -500                   0                                                            
                   0                   0                                                            
                 500                   1                                                            
               10000                   1                                                            
#---1----|----2----|----3----|----4----|----5----|----6----|----7----|----8----|----9----|---10----|
#-  8. RIGID BODIES:
#---1----|----2----|----3----|----4----|----5----|----6----|----7----|----8----|----9----|---10----|
/RBODY/2
RB2_ex
#     RBID     ISENS     NSKEW    ISPHER                MASS   Gnod_id     IKREM      ICOG   Surf_id
      1020         0         0         0                   0         8         0         0         0
#                Jxx                 Jyy                 Jzz
                   0                   0                   0
#                Jxy                 Jyz                 Jxz
                   0                   0                   0
#Ioptoff
         0
/GRNOD/NODE/8
n_2
       306       375       376       377
#---1----|----2----|----3----|----4----|----5----|----6----|----7----|----8----|----9----|---10----|
#-  9. IMPOSED VELOCITIES:
#---1----|----2----|----3----|----4----|----5----|----6----|----7----|----8----|----9----|---10----|
/IMPVEL/1
New IMPVEL 1
#funct_IDT       Dir   skew_ID sensor_ID  grnod_ID  frame_ID     Icoor
         5        XX         0         0         6         0         0
#           Ascale_x            Fscale_Y              Tstart               Tstop
                   0                .005                   0                   0
#---1----|----2----|----3----|----4----|----5----|----6----|----7----|----8----|----9----|---10----|
#- 10. TIME HISTORIES:
#---1----|----2----|----3----|----4----|----5----|----6----|----7----|----8----|----9----|---10----|
/TH/SHEL/2
sh4
#     var1      var2      var3      var4      var5      var6      var7      var8      var9     var10
DEF       
#     Elid                                                      Elname
       101                                                                                          
       133                                                                                          
       134                                                                                          
       166                                                                                          
       167                                                                                          
       199                                                                                          
#---1----|----2----|----3----|----4----|----5----|----6----|----7----|----8----|----9----|---10----|
/TH/PART/4
part
#     var1      var2      var3      var4      var5      var6      var7      var8      var9     var10
DEF       
#     Obj1      Obj2      Obj3      Obj4      Obj5      Obj6      Obj7      Obj8      Obj9     Obj10
         5
#---1----|----2----|----3----|----4----|----5----|----6----|----7----|----8----|----9----|---10----|
/TH/RBODY/5
RB
#     var1      var2      var3      var4      var5      var6      var7      var8      var9     var10
DEF       
#     Obj1      Obj2      Obj3      Obj4      Obj5      Obj6      Obj7      Obj8      Obj9     Obj10
         2
#---1----|----2----|----3----|----4----|----5----|----6----|----7----|----8----|----9----|---10----|
/TH/NODE/6
point1
#     var1      var2      var3      var4      var5      var6      var7      var8      var9     var10
ARX       AY        AZ        DY        DZ        VRX       VY        VZ        
#    NODid     Iskew                                           NODname
       306         0point1_group_0                                                                  
      1020         0                                                                                
#---1----|----2----|----3----|----4----|----5----|----6----|----7----|----8----|----9----|---10----|
/END
#---1----|----2----|----3----|----4----|----5----|----6----|----7----|----8----|----9----|---10----|
