#RADIOSS STARTER
#--------------------------------------------------------------------------------------------------|
#- RADIOSS DECK WRITTEN BY HyperCrash
#HyperCrash 14.0 (64 bits) 
#Mon Dec 21 15:13:37 2015
#-
#--------------------------------------------------------------------------------------------------|
#- RADIOSS DECK WRITTEN BY HyperCrash
#HyperCrash 10.0 SA2 (64 bits)
#Tue Jul 20 14:29:52 2010
#-
#--------------------------------------------------------------------------------------------------|
#- RADIOSS DECK / GENERATED BY HELIOSS 3.3.a3
#--------------------------------------------------------------------------------------------------|
#-
#- DATE	Tue Jul 20 14:29:52 2010
#--------------------------------------------------------------------------------------------------|
#---1----|----2----|----3----|----4----|----5----|----6----|----7----|----8----|----9----|---10----|
#-
#- DATE	Mon Dec 21 15:13:37 2015
#--------------------------------------------------------------------------------------------------|
#---1----|----2----|----3----|----4----|----5----|----6----|----7----|----8----|----9----|---10----|
/BEGIN
ROLLING                                                                         
       140         0
                   g                  mm                  ms
                   g                  mm                  ms
#---1----|----2----|----3----|----4----|----5----|----6----|----7----|----8----|----9----|---10----|
#-  1. CONTROL CARDS:
#---1----|----2----|----3----|----4----|----5----|----6----|----7----|----8----|----9----|---10----|
/TITLE
Pure Bending
#---1----|----2----|----3----|----4----|----5----|----6----|----7----|----8----|----9----|---10----|
/ANALY
#    N2D3D             IPARITH      ISUB
         0                   0         0
#---1----|----2----|----3----|----4----|----5----|----6----|----7----|----8----|----9----|---10----|
/DEF_SHELL
#   ISHELL    ISMSTR    ITHICK     IPLAS   ISTRAIN                        I_SH3N     IDRIL
         0         0         0         0         0                             0         0
#---1----|----2----|----3----|----4----|----5----|----6----|----7----|----8----|----9----|---10----|
/DEF_SOLID
#  I_SOLID    ISMSTR             ISTRAIN                                  IFRAME
         0         0                   0                                       0
#---1----|----2----|----3----|----4----|----5----|----6----|----7----|----8----|----9----|---10----|
/IOFLAG
#     IPRI               IGTYP     IOUTP    IOUTYY   IROOTYY     IDROT
         0                   0         0         0         0         0
#---1----|----2----|----3----|----4----|----5----|----6----|----7----|----8----|----9----|---10----|
/SPMD
#   DOMDEC     Nproc              Dkword             Nthread
         0         0                   0                   1
#---1----|----2----|----3----|----4----|----5----|----6----|----7----|----8----|----9----|---10----|
#-  2. MATERIALS:
#---1----|----2----|----3----|----4----|----5----|----6----|----7----|----8----|----9----|---10----|
/MAT/ELAST/102
ELASTIC
#              RHO_I
                 .01                 .01
#                  E                  nu
                1000                   0
#---1----|----2----|----3----|----4----|----5----|----6----|----7----|----8----|----9----|---10----|
#-  3. NODES:
#---1----|----2----|----3----|----4----|----5----|----6----|----7----|----8----|----9----|---10----|
/NODE
       606                 150                   0                   0
       607                 150                   0         -15.1999998
       608                 150                   0         -30.2999992
       609                 150                   0               -45.5
       610                 150                   0         -60.5999985
       611                 150                   0         -75.8000031
       612                 150                   0         -90.9000015
       613                 150                   0         -106.099998
       614                 150                   0         -121.199997
       615                 150                   0         -136.399994
       616                 150                   0              -151.5
       617                 150                   0         -166.699997
       618                 150                   0         -181.800003
       619                 150                   0                -197
       620                 150                   0         -212.100006
       621                 150                   0         -227.300003
       622                 150                   0         -242.399994
       623                 150                   0         -257.600006
       624                 150                   0         -272.700012
       625                 150                   0         -287.899994
# ... 117 like lines cut
#---1----|----2----|----3----|----4----|----5----|----6----|----7----|----8----|----9----|---10----|
#-  4. BOUNDARY CONDITIONS:
#---1----|----2----|----3----|----4----|----5----|----6----|----7----|----8----|----9----|---10----|
/BCS/1
clamp
#  Tra rot   skew_ID  grnod_ID
   111 111         0         2
/GRNOD/NODE/2
New GRNOD 1 _nodes_subsubgroup_
       639       640       641       642
#---1----|----2----|----3----|----4----|----5----|----6----|----7----|----8----|----9----|---10----|
/BCS/2
rot
#  Tra rot   skew_ID  grnod_ID
   000 011         0         6
/GRNOD/NODE/6
n_master
      1021
#---1----|----2----|----3----|----4----|----5----|----6----|----7----|----8----|----9----|---10----|
#-  5. PARTS:
#---1----|----2----|----3----|----4----|----5----|----6----|----7----|----8----|----9----|---10----|
/PART/6
T3
       303       102         0
#---1----|----2----|----3----|----4----|----5----|----6----|----7----|----8----|----9----|---10----|
# SH3N elements of /PART/6/T3:
#---1----|----2----|----3----|----4----|----5----|----6----|----7----|----8----|----9----|---10----|
/SH3N/6
       201       639       640       678                                                           0
       202       638       678       679                                                           0
       203       637       679       680                                                           0
       204       636       680       681                                                           0
       205       635       681       682                                                           0
       206       634       682       683                                                           0
       207       633       683       684                                                           0
       208       632       684       685                                                           0
       209       631       685       686                                                           0
       210       630       686       687                                                           0
       211       629       687       688                                                           0
       212       628       688       689                                                           0
       213       627       689       690                                                           0
       214       626       690       691                                                           0
       215       625       691       692                                                           0
       216       624       692       693                                                           0
       217       623       693       694                                                           0
       218       622       694       695                                                           0
       219       621       695       696                                                           0
       220       620       696       697                                                           0
# ... 178 like lines cut
#---1----|----2----|----3----|----4----|----5----|----6----|----7----|----8----|----9----|---10----|
#-  6. GEOMETRICAL SETS:
#---1----|----2----|----3----|----4----|----5----|----6----|----7----|----8----|----9----|---10----|
/PROP/SHELL/303
DKT18
#   Ishell    Ismstr     Ish3n    Idrill
        12         0         2         0
#                 hm                  hf                  hr                  dm                  dn
                   0                   0                   0                   0                   0
#        N   Istrain               Thick              Ashear              Ithick     Iplas
         0         0                  20                   0                   0         0
#---1----|----2----|----3----|----4----|----5----|----6----|----7----|----8----|----9----|---10----|
#-  7. FUNCTIONS:
#---1----|----2----|----3----|----4----|----5----|----6----|----7----|----8----|----9----|---10----|
/FUNCT/5
lineaire
#                  X                   Y
                -500                   0                                                            
                   0                   0                                                            
                 500                   1                                                            
               10000                   1                                                            
#---1----|----2----|----3----|----4----|----5----|----6----|----7----|----8----|----9----|---10----|
#-  8. RIGID BODIES:
#---1----|----2----|----3----|----4----|----5----|----6----|----7----|----8----|----9----|---10----|
/RBODY/3
RB3_ex
#     RBID     ISENS     NSKEW    ISPHER                MASS   Gnod_id     IKREM      ICOG   Surf_id
      1021         0         0         0                   0         9         0         0         0
#                Jxx                 Jyy                 Jzz
                   0                   0                   0
#                Jxy                 Jyz                 Jxz
                   0                   0                   0
#Ioptoff
         0
/GRNOD/NODE/9
n_3
       606       675       676       677
#---1----|----2----|----3----|----4----|----5----|----6----|----7----|----8----|----9----|---10----|
#-  9. IMPOSED VELOCITIES:
#---1----|----2----|----3----|----4----|----5----|----6----|----7----|----8----|----9----|---10----|
/IMPVEL/1
New IMPVEL 1
#funct_IDT       Dir   skew_ID sensor_ID  grnod_ID  frame_ID     Icoor
         5        XX         0         0         6         0         0
#           Ascale_x            Fscale_Y              Tstart               Tstop
                   0                .005                   0                   0
#---1----|----2----|----3----|----4----|----5----|----6----|----7----|----8----|----9----|---10----|
#- 10. TIME HISTORIES:
#---1----|----2----|----3----|----4----|----5----|----6----|----7----|----8----|----9----|---10----|
/TH/PART/4
part
#     var1      var2      var3      var4      var5      var6      var7      var8      var9     var10
DEF       
#     Obj1      Obj2      Obj3      Obj4      Obj5      Obj6      Obj7      Obj8      Obj9     Obj10
         6
#---1----|----2----|----3----|----4----|----5----|----6----|----7----|----8----|----9----|---10----|
/TH/RBODY/5
RB
#     var1      var2      var3      var4      var5      var6      var7      var8      var9     var10
DEF       
#     Obj1      Obj2      Obj3      Obj4      Obj5      Obj6      Obj7      Obj8      Obj9     Obj10
         3
#---1----|----2----|----3----|----4----|----5----|----6----|----7----|----8----|----9----|---10----|
/TH/NODE/6
point1
#     var1      var2      var3      var4      var5      var6      var7      var8      var9     var10
ARX       AY        AZ        DY        DZ        VRX       VY        VZ        
#    NODid     Iskew                                           NODname
       606         0point1_group_0                                                                  
      1021         0                                                                                
#---1----|----2----|----3----|----4----|----5----|----6----|----7----|----8----|----9----|---10----|
/END
#---1----|----2----|----3----|----4----|----5----|----6----|----7----|----8----|----9----|---10----|
