#RADIOSS STARTER
#--------------------------------------------------------------------------------------------------|
#- RADIOSS DECK WRITTEN BY HyperCrash
#HyperCrash 14.0 (64 bits) 
#Mon Dec 21 14:59:01 2015
#-
#--------------------------------------------------------------------------------------------------|
#- RADIOSS DECK WRITTEN BY HyperCrash
#HyperCrash 13.0.110 (64 bits)
#Tue May 12 23:47:32 2015
#-
#-
#- DATE	Tue May 12 23:47:32 2015
#--------------------------------------------------------------------------------------------------|
#---1----|----2----|----3----|----4----|----5----|----6----|----7----|----8----|----9----|---10----|
#-
#- DATE	Mon Dec 21 14:59:01 2015
#--------------------------------------------------------------------------------------------------|
#---1----|----2----|----3----|----4----|----5----|----6----|----7----|----8----|----9----|---10----|
/BEGIN
moving_source                                                                   
       140         0
                   g                  mm                  ms
                   g                  mm                  ms
#---1----|----2----|----3----|----4----|----5----|----6----|----7----|----8----|----9----|---10----|
#-  1. CONTROL CARDS:
#---1----|----2----|----3----|----4----|----5----|----6----|----7----|----8----|----9----|---10----|
/TITLE
thermal application test
#---1----|----2----|----3----|----4----|----5----|----6----|----7----|----8----|----9----|---10----|
/ANALY
#    N2D3D             IPARITH      ISUB
         0                   0         0
#---1----|----2----|----3----|----4----|----5----|----6----|----7----|----8----|----9----|---10----|
/IOFLAG
#     IPRI               IGTYP     IOUTP    IOUTYY   IROOTYY     IDROT
         5                   0         0         0         0         0
#---1----|----2----|----3----|----4----|----5----|----6----|----7----|----8----|----9----|---10----|
/RANDOM
#       Random-Noise                Seed
                   0                   0
#---1----|----2----|----3----|----4----|----5----|----6----|----7----|----8----|----9----|---10----|
/SHFRA/V4
#---1----|----2----|----3----|----4----|----5----|----6----|----7----|----8----|----9----|---10----|
/SPMD
#   DOMDEC     Nproc              Dkword             Nthread
         0         0                   0                   1
#---1----|----2----|----3----|----4----|----5----|----6----|----7----|----8----|----9----|---10----|
#-  2. MATERIALS:
#---1----|----2----|----3----|----4----|----5----|----6----|----7----|----8----|----9----|---10----|
/MAT/PLAS_JOHNS/1
PLATE -Alu
#              RHO_I
               .0028                   0
#                  E                  Nu
               70000                 .33
#                  a                   b                   n           EPS_p_max            SIG_max0
                 206                 450                  .5                   0                   0
#                  c           EPS_DOT_0       ICC   Fsmooth               F_cut               Chard
                   0                   0         0         0                   0                   0
#                  m              T_melt              rhoC_p                 T_r
                   0                   0                2.51                 298
/HEAT/MAT/1
#                 T0             RHO0_CP                  AS                  BS     IFORM
                 398                2.51                0.23                   0         1
# Blank card

#---1----|----2----|----3----|----4----|----5----|----6----|----7----|----8----|----9----|---10----|
/MAT/PLAS_JOHNS/2
SOURCE -Alu
#              RHO_I
               .0078                   0
#                  E                  Nu
              210000                 .33
#                  a                   b                   n           EPS_p_max            SIG_max0
                 206                 450                  .5                   0                   0
#                  c           EPS_DOT_0       ICC   Fsmooth               F_cut               Chard
                   0                   0         0         0                   0                   0
#                  m              T_melt              rhoC_p                 T_r
                   0                   0                2.51                 298
/HEAT/MAT/2
#                 T0             RHO0_CP                  AS                  BS     IFORM
                 800                2.51                0.23                   0         1
# Blank card

#---1----|----2----|----3----|----4----|----5----|----6----|----7----|----8----|----9----|---10----|
#-  3. NODES:
#---1----|----2----|----3----|----4----|----5----|----6----|----7----|----8----|----9----|---10----|
/NODE
         1                   0                   0                   0
         2                 100                   0                   0
         3                 100                 100                   0
         4                   0                 100                   0
       447                47.5                47.5                   1
       448                52.5                47.5                   1
       449                52.5                52.5                   1
       450                47.5                52.5                   1
       451                 100    -7.958911308E-15    -5.875103325E-20
       452                 100                 2.5    -5.988072525E-20
       453                 100                   5    -6.101041725E-20
       454                 100                 7.5    -6.214010925E-20
       455                 100                  10    -6.326980125E-20
       456                 100                12.5    -6.439949325E-20
       457                 100                  15    -6.552918525E-20
       458                 100                17.5    -6.665887725E-20
       459                 100                  20    -6.778856925E-20
       460                 100                22.5    -6.891826125E-20
       461                 100                  25    -7.004795325E-20
       462                 100                27.5    -7.117764524E-20
# ... 1669 like lines cut
#---1----|----2----|----3----|----4----|----5----|----6----|----7----|----8----|----9----|---10----|
#-  4. BOUNDARY CONDITIONS:
#---1----|----2----|----3----|----4----|----5----|----6----|----7----|----8----|----9----|---10----|
/BCS/1
fixed plate
#  Tra rot   skew_ID  grnod_ID
   111 111         0         9
/GRNOD/PART/9
New GRNOD 8 _nodes_subsubgroup_
         1
#---1----|----2----|----3----|----4----|----5----|----6----|----7----|----8----|----9----|---10----|
/BCS/2
New BCS 2
#  Tra rot   skew_ID  grnod_ID
   001 111         0        10
/GRNOD/NODE/10
New GRNOD 8 _nodes_subsubgroup_
       447       448       449       450
#---1----|----2----|----3----|----4----|----5----|----6----|----7----|----8----|----9----|---10----|
#-  5. PARTS:
#---1----|----2----|----3----|----4----|----5----|----6----|----7----|----8----|----9----|---10----|
/PART/1
PLATE
         1         1         0
#---1----|----2----|----3----|----4----|----5----|----6----|----7----|----8----|----9----|---10----|
# SHELL elements of /PART/1/PLATE:
#---1----|----2----|----3----|----4----|----5----|----6----|----7----|----8----|----9----|---10----|
/SHELL/1
       402       714       715       710       711                                                 0
       403       715       706       707       710                                                 0
       404       699       700       715       714                                                 0
       405       700       701       706       715                                                 0
       406       711       712       716       714                                                 0
       407       714       716       698       699                                                 0
       408       672       717       713       671                                                 0
       409       717       716       712       713                                                 0
       410       673       697       717       672                                                 0
       411       697       698       716       717                                                 0
       412       718       720       655       656                                                 0
       413       720       709       654       655                                                 0
       414       719       721       720       718                                                 0
       415       721       708       709       720                                                 0
       416       711       710       721       719                                                 0
       417       710       707       708       721                                                 0
       418       669       722       658       659                                                 0
       419       722       723       657       658                                                 0
       420       723       718       656       657                                                 0
       421       671       713       724       670                                                 0
# ... 1580 like lines cut
#---1----|----2----|----3----|----4----|----5----|----6----|----7----|----8----|----9----|---10----|
/PART/2
SOURCE
         2         2         0
#---1----|----2----|----3----|----4----|----5----|----6----|----7----|----8----|----9----|---10----|
# SHELL elements of /PART/2/SOURCE:
#---1----|----2----|----3----|----4----|----5----|----6----|----7----|----8----|----9----|---10----|
/SHELL/2
       401       450       447       448       449                                                 0
#---1----|----2----|----3----|----4----|----5----|----6----|----7----|----8----|----9----|---10----|
#-  6. GEOMETRICAL SETS:
#---1----|----2----|----3----|----4----|----5----|----6----|----7----|----8----|----9----|---10----|
/PROP/SHELL/1
PID 1
#   Ishell    Ismstr     Ish3n    Idrill
         1         1         0         0
#                 hm                  hf                  hr                  dm                  dn
                   0                   0                   0                   0                   0
#        N   Istrain               Thick              Ashear              Ithick     Iplas
         1         0                   1                   0                   0         0
#---1----|----2----|----3----|----4----|----5----|----6----|----7----|----8----|----9----|---10----|
/PROP/SHELL/2
PID 2
#   Ishell    Ismstr     Ish3n    Idrill
         1         1         0         0
#                 hm                  hf                  hr                  dm                  dn
                   0                   0                   0                   0                   0
#        N   Istrain               Thick              Ashear              Ithick     Iplas
         1         0                   1                   0                   0         0
#---1----|----2----|----3----|----4----|----5----|----6----|----7----|----8----|----9----|---10----|
#-  7. FUNCTIONS:
#---1----|----2----|----3----|----4----|----5----|----6----|----7----|----8----|----9----|---10----|
/FUNCT/1
CST_function
#                  X                   Y
                   0                   1                                                            
                4000                   1                                                            
#---1----|----2----|----3----|----4----|----5----|----6----|----7----|----8----|----9----|---10----|
/FUNCT/2
New FUNCT 2
#                  X                   Y
                   0                   0                                                            
                  10                  40                                                            
                  15                   0                                                            
                  20                 -40                                                            
                  25                 -40                                                            
                  30                 -40                                                            
#---1----|----2----|----3----|----4----|----5----|----6----|----7----|----8----|----9----|---10----|
/FUNCT/3
New FUNCT 3
#                  X                   Y
                   0                   0                                                            
                  10                  20                                                            
                  15                  30                                                            
                  20                  40                                                            
                  25                   0                                                            
                  30                 -40                                                            
#---1----|----2----|----3----|----4----|----5----|----6----|----7----|----8----|----9----|---10----|
/FUNCT/4
IMPTEMP
#                  X                   Y
                   0                   1                                                            
                  30                   1                                                            
#---1----|----2----|----3----|----4----|----5----|----6----|----7----|----8----|----9----|---10----|
/FUNCT/6
CONVEC, temp vs time
#                  X                   Y
                   0                 298                                                            
                  30                 298                                                            
#---1----|----2----|----3----|----4----|----5----|----6----|----7----|----8----|----9----|---10----|
#-  8. INTERFACES:
#---1----|----2----|----3----|----4----|----5----|----6----|----7----|----8----|----9----|---10----|
/INTER/TYPE7/2
New INTER 2
#  Slav_id   Mast_id      Istf      Ithe      Igap                Ibag      Idel     Icurv      Iadm
        23        25         0         1         0                   0         0         0         0
#          Fscalegap             GAP_MAX             Fpenmax
                   0                   0                   0
#              Stmin               Stmax          %mesh_size               dtmin  Irem_gap
                   0                   0                   0                   0         0
#              Stfac                Fric              Gapmin              Tstart               Tstop
                1E-7                 .15                1.01                   0                   0
#      IBC                        Inacti                VisS                VisF              Bumult
       000                             0                   0                   0                   0
#    Ifric    Ifiltr               Xfreq     Iform   sens_ID
         0         0                   0         1         0
#               Rthe                                    Tint Ithe_form
                .015                                     398         1
#               Frad                Drad              Fheats              Fheatm
                   0                   0                   0                   0
/GRNOD/PART/23
New GRNOD 3
         1
/SURF/PART/25
New SURF
         2
#---1----|----2----|----3----|----4----|----5----|----6----|----7----|----8----|----9----|---10----|
#-  9. IMPOSED DISPLACEMENTS:
#---1----|----2----|----3----|----4----|----5----|----6----|----7----|----8----|----9----|---10----|
/IMPDISP/1
New IMPDISP DX
#   Ifunct       DIR     Iskew   Isensor   Gnod_id     Frame     Icoor
         2         X         0         0         7         0         0
#            Scale_x             Scale_y              Tstart               Tstop
                   1                   1                   0                   0
/GRNOD/NODE/7
New GRNOD 6 _nodes_subsubgroup_
       447       448       449       450
#---1----|----2----|----3----|----4----|----5----|----6----|----7----|----8----|----9----|---10----|
/IMPDISP/2
New IMPDISP DY
#   Ifunct       DIR     Iskew   Isensor   Gnod_id     Frame     Icoor
         3         Y         0         0         7         0         0
#            Scale_x             Scale_y              Tstart               Tstop
                   1                   1                   0                   0
#---1----|----2----|----3----|----4----|----5----|----6----|----7----|----8----|----9----|---10----|
#- 10. IMPTEMP:
#---1----|----2----|----3----|----4----|----5----|----6----|----7----|----8----|----9----|---10----|
/IMPTEMP/1
New IMPTEMP 1
# func_IDT sensor_ID  grnod_ID
         4         0         7
#           Ascale_x            Fscale_y             T_start              T_stop
                   1                 800                   0                   0
#---1----|----2----|----3----|----4----|----5----|----6----|----7----|----8----|----9----|---10----|
#- 11. CONVEC:
#---1----|----2----|----3----|----4----|----5----|----6----|----7----|----8----|----9----|---10----|
/CONVEC/1
CONVEC with water
#  SURF_ID  FUNCT_ID SENSOR_ID
       225         6         0
#             ASCALE              FSCALE              TSTART               TSTOP                   H
                   0                   0                   0                   0                5E-4
/SURF/PART/225
New SURF
         1
#---1----|----2----|----3----|----4----|----5----|----6----|----7----|----8----|----9----|---10----|
#- 12. NODE GROUPS:
#---1----|----2----|----3----|----4----|----5----|----6----|----7----|----8----|----9----|---10----|
/GRNOD/PART/5
New GRNOD 3 _parts_subsubgroup_
         2
#---1----|----2----|----3----|----4----|----5----|----6----|----7----|----8----|----9----|---10----|
#- 13. SURFACES:
#---1----|----2----|----3----|----4----|----5----|----6----|----7----|----8----|----9----|---10----|
/SURF/PART/3
New SURF 1 _parts_subsubgroup_
         1
#---1----|----2----|----3----|----4----|----5----|----6----|----7----|----8----|----9----|---10----|
#- 14. TIME HISTORIES:
#---1----|----2----|----3----|----4----|----5----|----6----|----7----|----8----|----9----|---10----|
/TH/NODE/1
Part selection
#     var1      var2      var3      var4      var5      var6      var7      var8      var9     var10
DEF       TEMP      
#    NODid     Iskew                                           NODname
         1         0                                                                                
         2         0                                                                                
         3         0                                                                                
         4         0                                                                                
       447         0                                                                                
       448         0                                                                                
       449         0                                                                                
       450         0                                                                                
       451         0                                                                                
       452         0                                                                                
       453         0                                                                                
       454         0                                                                                
       455         0                                                                                
       456         0                                                                                
       457         0                                                                                
       458         0                                                                                
       459         0                                                                                
       460         0                                                                                
       461         0                                                                                
       462         0                                                                                
# ... 1669 like lines cut
#---1----|----2----|----3----|----4----|----5----|----6----|----7----|----8----|----9----|---10----|
/TH/INTER/2
Part selection
#     var1      var2      var3      var4      var5      var6      var7      var8      var9     var10
DEF       
#     Obj1      Obj2      Obj3      Obj4      Obj5      Obj6      Obj7      Obj8      Obj9     Obj10
         2
#---1----|----2----|----3----|----4----|----5----|----6----|----7----|----8----|----9----|---10----|
/END
#---1----|----2----|----3----|----4----|----5----|----6----|----7----|----8----|----9----|---10----|
