#RADIOSS STARTER
/BEGIN
WELD - lap joint tied by /INTER/TYPE2, pulled in shear
/NODE
         1        0.0000000000        0.0000000000        0.0000000000
         2        2.0000000000        0.0000000000        0.0000000000
         3        4.0000000000        0.0000000000        0.0000000000
         4        6.0000000000        0.0000000000        0.0000000000
         5        8.0000000000        0.0000000000        0.0000000000
         6       10.0000000000        0.0000000000        0.0000000000
         7       12.0000000000        0.0000000000        0.0000000000
         8       14.0000000000        0.0000000000        0.0000000000
         9       16.0000000000        0.0000000000        0.0000000000
        10       18.0000000000        0.0000000000        0.0000000000
        11       20.0000000000        0.0000000000        0.0000000000
        12       22.0000000000        0.0000000000        0.0000000000
        13       24.0000000000        0.0000000000        0.0000000000
        14       26.0000000000        0.0000000000        0.0000000000
        15       28.0000000000        0.0000000000        0.0000000000
        16       30.0000000000        0.0000000000        0.0000000000
        17       32.0000000000        0.0000000000        0.0000000000
        18       34.0000000000        0.0000000000        0.0000000000
        19       36.0000000000        0.0000000000        0.0000000000
        20       38.0000000000        0.0000000000        0.0000000000
# ... 352 like lines cut
/SHELL/1
         1         1         2        33        32
         2         2         3        34        33
         3         3         4        35        34
         4         4         5        36        35
         5         5         6        37        36
         6         6         7        38        37
         7         7         8        39        38
         8         8         9        40        39
         9         9        10        41        40
        10        10        11        42        41
        11        11        12        43        42
        12        12        13        44        43
        13        13        14        45        44
        14        14        15        46        45
        15        15        16        47        46
        16        16        17        48        47
        17        17        18        49        48
        18        18        19        50        49
        19        19        20        51        50
        20        20        21        52        51
# ... 130 like lines cut
/SHELL/2
      1001      1001      1002      1033      1032
      1002      1002      1003      1034      1033
      1003      1003      1004      1035      1034
      1004      1004      1005      1036      1035
      1005      1005      1006      1037      1036
      1006      1006      1007      1038      1037
      1007      1007      1008      1039      1038
      1008      1008      1009      1040      1039
      1009      1009      1010      1041      1040
      1010      1010      1011      1042      1041
      1011      1011      1012      1043      1042
      1012      1012      1013      1044      1043
      1013      1013      1014      1045      1044
      1014      1014      1015      1046      1045
      1015      1015      1016      1047      1046
      1016      1016      1017      1048      1047
      1017      1017      1018      1049      1048
      1018      1018      1019      1050      1049
      1019      1019      1020      1051      1050
      1020      1020      1021      1052      1051
# ... 130 like lines cut
/PART/1
lower strip
         1         1
/PART/2
upper strip
         1         1
/MAT/LAW1/1
elastic steel
    7.8e-6
     210.0       0.3
/PROP/SHELL/1
strip t=1.0
         1         0         0         0
      0.01      0.01      0.01         0         0
         3         0     1.000
/BOX/RECTA/1
overlap band
    39.900    -0.100     0.900
    60.100    10.100     1.100
/GRNOD/BOX/3
upper overlap nodes
         1
/SURF/PART/1
lower strip surface
         1
/INTER/TYPE2/1
spot weld patch
         3         1       1.5
/GRNOD/NODE/1
lower clamped end
1 32 63 94 125 156
/GRNOD/NODE/2
upper pulled end
1031 1062 1093 1124 1155 1186
/BCS/1
clamp lower end
       111       111         0         1
/FUNCT/1
velocity ramp
       0.0       0.0
     0.050       1.0
     100.0       1.0
/IMPVEL/1
pull upper end in +X
         1         X         2     1.000
/TH/NODE/1
pulled corner
DX VX
1031
/END
