#RADIOSS STARTER
/BEGIN
NOTCH
      2022         0
                  Mg                  mm                   s
                  Mg                  mm                   s
/NODE
#   node_ID                   X                   Y                   Z
         1                 0.0                 0.0                 0.0
         2                 1.0                 0.0                 0.0
         3                 2.0                 0.0                 0.0
         4                 3.0                 0.0                 0.0
         5                 4.0                 0.0                 0.0
         6                 5.0                 0.0                 0.0
         7                 6.0                 0.0                 0.0
         8                 7.0                 0.0                 0.0
         9                 8.0                 0.0                 0.0
        10                 9.0                 0.0                 0.0
        11                10.0                 0.0                 0.0
        12                11.0                 0.0                 0.0
        13                12.0                 0.0                 0.0
        14                13.0                 0.0                 0.0
        15                14.0                 0.0                 0.0
        16                15.0                 0.0                 0.0
        17                16.0                 0.0                 0.0
        18                17.0                 0.0                 0.0
        19                18.0                 0.0                 0.0
        20                19.0                 0.0                 0.0
# ... 211 like lines cut
/SHELL/1
         1         1         2        23        22
         2         2         3        24        23
         3         3         4        25        24
         4         4         5        26        25
         5         5         6        27        26
         6         6         7        28        27
         7         7         8        29        28
         8         8         9        30        29
         9         9        10        31        30
        10        10        11        32        31
        11        11        12        33        32
        12        12        13        34        33
        13        13        14        35        34
        14        14        15        36        35
        15        15        16        37        36
        16        16        17        38        37
        17        17        18        39        38
        18        18        19        40        39
        19        19        20        41        40
        20        20        21        42        41
# ... 174 like lines cut
/PART/1
notched plate
         1         1
/MAT/LAW36/1
mild steel, tabulated hardening
             7.8e-06
               210.0                 0.3
#   N_funct  (F_smooth C_hard F_cut Eps_f VP blank = defaults)
         1
          
        11
          
          
/FUNCT/11
sy(eps_p): 0.25 -> 0.40 GPa at 40%, then flat
                 0.0                0.25
                 0.4                 0.4
                10.0                 0.4
/FAIL/BIQUAD/1
                 0.6                0.45                0.35                0.25                 0.3
          
/PROP/SHELL/1
plate t=1
#    Ishell    Ismstr     Ish3n    Idrill
         1         0         0         0
#                   hm                  hf                  hr
                0.01                0.01                0.01
#         N   Istrain               Thick
         3         0                 1.0
/GRNOD/NODE/1
bottom edge
         1         2         3         4         5         6         7         8         9        10
        11        12        13        14        15        16        17        18        19        20
        21
/GRNOD/NODE/2
top edge
       211       212       213       214       215       216       217       218       219       220
       221       222       223       224       225       226       227       228       229       230
       231
/BCS/1
clamp bottom edge
   111 111         0         1
/FUNCT/1
velocity ramp
                 0.0                 0.0
                0.02                 1.0
               100.0                 1.0
/IMPVEL/1
pull top edge in +Y
    900001         Y                             2
                 1.0                 1.0
/SURF/PART/1
whole plate
         1
/INTER/TYPE7/1
plate self-impact
#  grnod_id   surf_id      Istf     (Ithe)      Igap
         0         1         2                   1
          
          
#  RESIDUE: the 4th value below is the PORT's gap_max; the real 2022 layout reads this column as Tstart (real GAPMAX lives on the blank card above and cannot be set without breaking the port's card indexing). Starter-accepted; the validation harness maps it back to GAPMAX for Fortran runs.
#               Stfac                Fric              GAPmin
                 1.0                 0.0                 0.0                 0.5
          
          
/TH/NODE/1
top corner
DY        VY        
       211
/TH/PART/2
plate energies
IE        KE        
         1
# auxiliary /FUNCT/900001 = /FUNCT/1 scaled by 2.0 (for /IMPVEL|/IMPDISP: the real card carries the scale on card 2, which the port never reads -- see deck_writer._imp)
/FUNCT/900001
auto-scaled copy (id 900001)
                 0.0                 0.0
                0.02                 2.0
               100.0                 2.0
/END
