#RADIOSS STARTER
/BEGIN
SNAP - von Mises truss snap-through, arc length (pyradioss)
/NODE
         1     -100.0000000000        0.0000000000        0.0000000000
         2      100.0000000000        0.0000000000        0.0000000000
         3        0.0000000000       20.0000000000        0.0000000000
/TRUSS/1
         1         1         3
         2         2         3
/PART/1
bars
         1         1
/MAT/LAW1/1
elastic bar
   7.8e-6
     210.0       0.0
/PROP/TRUSS/1
bar
       1.0
/GRNOD/NODE/1
pinned supports
1 2
/GRNOD/NODE/2
apex
3
/BCS/1
pin the supports
       111       000         0         1
/BCS/2
apex stays in the xy plane
       001       000         0         2
/FUNCT/1
proportional load-factor ramp
       0.0       0.0
     100.0     100.0
/CLOAD/1
push the apex down
         1         Y         2       -0.8135216251914509
/END
