#RADIOSS STARTER
#--------------------------------------------------------------------------------------------------|
#- RADIOSS DECK WRITTEN BY HyperCrash
#HyperCrash 2020 (64 bits) 
#Wed Mar  4 14:56:47 2020
#-
##========================================================================================
##
## To import this file into HM use the Include files: = skip option because the /EBCS cards are
## not supported by HyperMesh
##
##========================================================================================
##
##--------------------------------------------------------------------------------------------------
#---1----|----2----|----3----|----4----|----5----|----6----|----7----|----8----|----9----|---10----|
##
#
#-
#- DATE	Wed Mar  4 14:56:47 2020
#--------------------------------------------------------------------------------------------------|
#---1----|----2----|----3----|----4----|----5----|----6----|----7----|----8----|----9----|---10----|
/BEGIN
DOUBLE_OBLIQUE_QUADS                                                            
      2023         0
                   g                  mm                  ms
                   g                  mm                  ms
#---1----|----2----|----3----|----4----|----5----|----6----|----7----|----8----|----9----|---10----|
#-  1. CONTROL CARDS:
#---1----|----2----|----3----|----4----|----5----|----6----|----7----|----8----|----9----|---10----|
/TITLE
DOUBLE OBLIQUE SHOCK WAVE - 8 deg - 28 deg - Mach 3
#---1----|----2----|----3----|----4----|----5----|----6----|----7----|----8----|----9----|---10----|
#include ebcs.inc
#---1----|----2----|----3----|----4----|----5----|----6----|----7----|----8----|----9----|---10----|
#---1----|----2----|----3----|----4----|----5----|----6----|----7----|----8----|----9----|---10----|
/ANALY
#    N2D3D             IPARITH      ISUB
         2                   0         0
#---1----|----2----|----3----|----4----|----5----|----6----|----7----|----8----|----9----|---10----|
#-  2. MATERIALS:
#---1----|----2----|----3----|----4----|----5----|----6----|----7----|----8----|----9----|---10----|
/MAT/HYD_VISC/1
AIR
#              RHO_I               RHO_0
            1.225E-6                   0
#                Knu                Pmin
                   0                   0
/EOS/IDEAL-GAS/1
AIR
#              GAMMA                  P0                 Psh                  T0               RHO_0
                 1.4                  .1                   0                   0        
#---1----|----2----|----3----|----4----|----5----|----6----|----7----|----8----|----9----|---10----|
/MAT/LAW151/3
AIR LAW151
# Blank line

#   Mat_ID            Vol_Frac
         1                   1
#---1----|----2----|----3----|----4----|----5----|----6----|----7----|----8----|----9----|---10----|
#-  3. NODES:
#---1----|----2----|----3----|----4----|----5----|----6----|----7----|----8----|----9----|---10----|
/NODE
    281376                   0                  50    20.6896551724138
    281541                   0                  50    45.4272863568216
    282438                   0      2.829789878035    44.9272825970258
    282575                   0    .001103180208102    24.5855953511271
    282576                   0                  50                   0
    282577                   0    49.8498498498499                   0
    282578                   0    49.6996996996997                   0
    282579                   0    49.5495495495495                   0
    282580                   0    49.3993993993994                   0
    282581                   0    49.2492492492492                   0
    282582                   0    49.0990990990991                   0
    282583                   0     48.948948948949                   0
    282584                   0    48.7987987987988                   0
    282585                   0    48.6486486486486                   0
    282586                   0    48.4984984984985                   0
    282587                   0    48.3483483483484                   0
    282588                   0    48.1981981981982                   0
    282589                   0    48.0480480480481                   0
    282590                   0    47.8978978978979                   0
    282591                   0    47.7477477477478                   0
# ... 164449 like lines cut
#---1----|----2----|----3----|----4----|----5----|----6----|----7----|----8----|----9----|---10----|
#-  4. PARTS:
#---1----|----2----|----3----|----4----|----5----|----6----|----7----|----8----|----9----|---10----|
/PART/1
AIR
         1         3         0
#---1----|----2----|----3----|----4----|----5----|----6----|----7----|----8----|----9----|---10----|
# QUAD elements of /PART/1/AIR:
#---1----|----2----|----3----|----4----|----5----|----6----|----7----|----8----|----9----|---10----|
/QUAD/1
    188034    285542    285541    285546    285545
    188035    285541    285529    285528    285546
    188036    285545    285546    285521    285520
    188037    285546    285528    285522    285521
    188038    285543    285542    285545    285547
    188039    285547    285545    285520    285519
    188040    285506    285544    285548    285507
    188041    285544    285543    285547    285548
    188042    285507    285548    285518    285508
    188043    285548    285547    285519    285518
    188044    285538    285537    285551    285549
    188045    285537    285532    285531    285551
    188046    285549    285551    285552    285550
    188047    285551    285531    285530    285552
    188048    285550    285552    285541    285542
    188049    285552    285530    285529    285541
    188050    285503    285540    285553    285504
    188051    285540    285539    285554    285553
    188052    285539    285538    285549    285554
    188053    285544    285506    285505    285555
# ... 163526 like lines cut
#---1----|----2----|----3----|----4----|----5----|----6----|----7----|----8----|----9----|---10----|
#-  5. GEOMETRICAL SETS:
#---1----|----2----|----3----|----4----|----5----|----6----|----7----|----8----|----9----|---10----|
/PROP/SOLID/1
solid
#   Isolid    Ismstr               Icpre  Itetra10     Inpts   Itetra4    Iframe                  dn
         0         0         2         0         0         0         0         0                   0
#                q_a                 q_b                   h            LAMBDA_V                MU_V
                   0                   0                   0                   0                   0
#             dt_min   istrain      IHKT
                   0         0         0
#---1----|----2----|----3----|----4----|----5----|----6----|----7----|----8----|----9----|---10----|
#-  6. INITIAL VELOCITIES:
#---1----|----2----|----3----|----4----|----5----|----6----|----7----|----8----|----9----|---10----|
/INIVEL/FVM/1
SHOCK_VEL
#                 VX                  Vy                  VZ grbric_ID   grqd_ID grtria_ID   Skew_ID
                   0                   0       1014.18510567         0         1         0         0
/GRQUAD/PART/1
group of cells
         1
#---1----|----2----|----3----|----4----|----5----|----6----|----7----|----8----|----9----|---10----|
#-  7. SURFACES:
#---1----|----2----|----3----|----4----|----5----|----6----|----7----|----8----|----9----|---10----|
/SURF/SEG/1
ebcs_in
         1    282576    282577
         3    282577    282578
         4    282578    282579
         5    282579    282580
         6    282580    282581
         7    282581    282582
         8    282582    282583
         9    282583    282584
        10    282584    282585
        11    282585    282586
        12    282586    282587
        13    282587    282588
        14    282588    282589
        15    282589    282590
        16    282590    282591
        17    282591    282592
        18    282592    282593
        19    282593    282594
        20    282594    282595
        21    282595    282596
# ... 313 like lines cut
#---1----|----2----|----3----|----4----|----5----|----6----|----7----|----8----|----9----|---10----|
/SURF/SEG/2
ebcs_out
         2    284411    282576
       335    283626    283627
       336    283627    283628
       337    283628    283629
       338    283629    283630
       339    283630    283631
       340    283631    283632
       341    283632    283633
       342    283633    283634
       343    283634    283635
       344    283635    283636
       345    283636    283637
       346    283637    283638
       347    283638    283639
       348    283639    283640
       349    283640    283641
       350    283641    283642
       351    283642    283643
       352    283643    283644
       353    283644    283645
# ... 766 like lines cut
#---1----|----2----|----3----|----4----|----5----|----6----|----7----|----8----|----9----|---10----|
/END
#---1----|----2----|----3----|----4----|----5----|----6----|----7----|----8----|----9----|---10----|
