#RADIOSS STARTER
#--------------------------------------------------------------------------------------------------|
#- RADIOSS DECK WRITTEN BY HyperCrash
#HyperCrash 14.0 (64 bits) 
#Mon Dec 21 15:14:13 2015
#-
#--------------------------------------------------------------------------------------------------|
#- RADIOSS DECK WRITTEN BY HyperCrash
#HyperCrash 10.0 SA2 (64 bits)
#Tue Jul 20 11:19:33 2010
#-
#
#
#-
#- DATE	Tue Jul 20 11:19:33 2010
#--------------------------------------------------------------------------------------------------|
#---1----|----2----|----3----|----4----|----5----|----6----|----7----|----8----|----9----|---10----|
#-
#- DATE	Mon Dec 21 15:14:13 2015
#--------------------------------------------------------------------------------------------------|
#---1----|----2----|----3----|----4----|----5----|----6----|----7----|----8----|----9----|---10----|
/BEGIN
COLLISION                                                                       
       140         0
                   g                  mm                  ms
                   g                  mm                  ms
#---1----|----2----|----3----|----4----|----5----|----6----|----7----|----8----|----9----|---10----|
#-  1. CONTROL CARDS:
#---1----|----2----|----3----|----4----|----5----|----6----|----7----|----8----|----9----|---10----|
/TITLE
Billard_anglais
#---1----|----2----|----3----|----4----|----5----|----6----|----7----|----8----|----9----|---10----|
/ANALY
#    N2D3D             IPARITH      ISUB
         0                   0         0
#---1----|----2----|----3----|----4----|----5----|----6----|----7----|----8----|----9----|---10----|
/DEF_SHELL
#   ISHELL    ISMSTR    ITHICK     IPLAS   ISTRAIN                        I_SH3N     IDRIL
         0         0         0         0         0                             0         0
#---1----|----2----|----3----|----4----|----5----|----6----|----7----|----8----|----9----|---10----|
/DEF_SOLID
#  I_SOLID    ISMSTR             ISTRAIN                                  IFRAME
         0         0                   0                                       0
#---1----|----2----|----3----|----4----|----5----|----6----|----7----|----8----|----9----|---10----|
/IOFLAG
#     IPRI               IGTYP     IOUTP    IOUTYY   IROOTYY     IDROT
         5                   0         0         0         0         0
#---1----|----2----|----3----|----4----|----5----|----6----|----7----|----8----|----9----|---10----|
/SPMD
#   DOMDEC     Nproc              Dkword             Nthread
         0         0                   0                   1
#---1----|----2----|----3----|----4----|----5----|----6----|----7----|----8----|----9----|---10----|
#-  2. MATERIALS:
#---1----|----2----|----3----|----4----|----5----|----6----|----7----|----8----|----9----|---10----|
/MAT/ELAST/4
Plateau_ardoise
#              RHO_I
               .0028               .0028
#                  E                  nu
                6200                   0
#---1----|----2----|----3----|----4----|----5----|----6----|----7----|----8----|----9----|---10----|
/MAT/ELAST/5
Balls_bakelit_phenolic_formaldehyde_resin_5
#              RHO_I
              .00137              .00137
#                  E                  nu
               10500                  .3
#---1----|----2----|----3----|----4----|----5----|----6----|----7----|----8----|----9----|---10----|
/MAT/ELAST/6
truss
#              RHO_I
                .001                .001
#                  E                  nu
                1000                  .3
#---1----|----2----|----3----|----4----|----5----|----6----|----7----|----8----|----9----|---10----|
#-  3. NODES:
#---1----|----2----|----3----|----4----|----5----|----6----|----7----|----8----|----9----|---10----|
/NODE
    155859     412.80744267599     304.41921014531          33.5407577
    155860     413.51293597208     298.59354678962          39.6048889
    155861      413.3108944272     293.49048580128          40.9777356
    155862     442.39861103068      307.7419765491         35.33187515
    155863     441.58258832712     301.45675787944         33.49669835
    155864     442.20954502884     285.65382634061          36.1270716
    155865     438.66177493626     293.46067582604         40.98886235
    155866     425.96727903583     310.23662654539           32.741166
    155867     412.70324585496     291.27735135027          46.8483503
    155868     410.41553421829     300.41039704627         42.95930795
    155869      420.3921383196     275.07031591418         14.44666825
    155870     423.08305025505     299.51908533706          6.96917185
    155871     426.03746264637     265.97599320148                25.3
    155872      449.0476957025     300.43614294316         30.16712233
    155873     431.64122129211     296.94697074596          44.0431263
    155874     418.68133496911     303.71647715977         39.65037585
    155875     414.15676957463      303.0745850846         36.94037645
    155876      432.7942831577     308.82666388432          33.0831697
    155877      431.5944616804     307.48828408582         14.44666825
    155878     409.78431591418      296.8804616804         14.44666825
# ... 1158 like lines cut
#---1----|----2----|----3----|----4----|----5----|----6----|----7----|----8----|----9----|---10----|
#-  4. BOUNDARY CONDITIONS:
#---1----|----2----|----3----|----4----|----5----|----6----|----7----|----8----|----9----|---10----|
/BCS/1
Fixing
#  Tra rot   skew_ID  grnod_ID
   111 111         0       115
/GRNOD/NODE/115
New GRNOD 114 _nodes_subsubgroup_
    157570    159079    159200    163107    163236    175607    175651    175795
#---1----|----2----|----3----|----4----|----5----|----6----|----7----|----8----|----9----|---10----|
#-  5. PARTS:
#---1----|----2----|----3----|----4----|----5----|----6----|----7----|----8----|----9----|---10----|
/PART/17
Ball_2
         3         5        10
#---1----|----2----|----3----|----4----|----5----|----6----|----7----|----8----|----9----|---10----|
# SHEL16 elements of /PART/17/Ball_2:
#---1----|----2----|----3----|----4----|----5----|----6----|----7----|----8----|----9----|---10----|
/SHEL16/17
     25461    156392    156324    156057    156056    156310    156012    155876    155866
    156258    155995    155944    156395
    156016    156118    155989    155990
     25462    156051    155961    155956    156050    156058    156029    156028    155999
    156198    156039    156004    156005
    155874    156040    156041    156173
     25463    155956    155955    155975    156208    156028    156068    156435    155873
    156425    156426    156014    156015
    156036    156037    156193    156194
     25464    156305    156303    155928    156412    156253    155940    155859    156064
    155901    156010    156423    156278
    155884    156062    156155    156098
     25465    156300    156304    156347    156350    156355    156328    156315    156112
    156368    156366    156261    156267
    156345    155893    156260    155886
     25466    156392    156292    156017    156338    156310    156325    156354    156361
    156370    156319    156320    156313
    156404    156389    156318    156413
     25467    156138    156128    156125    156126    156164    156145    155914    156195
    156119    156183    156154    156127
# ... 268 like lines cut
#---1----|----2----|----3----|----4----|----5----|----6----|----7----|----8----|----9----|---10----|
/PART/18
Plateau
         2         4         8
#---1----|----2----|----3----|----4----|----5----|----6----|----7----|----8----|----9----|---10----|
# SHEL16 elements of /PART/18/Plateau:
#---1----|----2----|----3----|----4----|----5----|----6----|----7----|----8----|----9----|---10----|
/SHEL16/18
      3502    157570    159200    175795    163236    157470    159158    175776    163247
    159079    175607    175651    163107
    159073    175639    175561    163256
#---1----|----2----|----3----|----4----|----5----|----6----|----7----|----8----|----9----|---10----|
/PART/20
Truss 2
         4         6        10
#---1----|----2----|----3----|----4----|----5----|----6----|----7----|----8----|----9----|---10----|
# TRUSS elements of /PART/20/Truss 2:
#---1----|----2----|----3----|----4----|----5----|----6----|----7----|----8----|----9----|---10----|
/TRUSS/20
         2    156073    175796
         3    155888    175796
         4    156294    175796
         5    156188    175796
         6    156115    175796
         7    155940    175796
#---1----|----2----|----3----|----4----|----5----|----6----|----7----|----8----|----9----|---10----|
/PART/21
Ball_1
         3         5        10
#---1----|----2----|----3----|----4----|----5----|----6----|----7----|----8----|----9----|---10----|
# SHEL16 elements of /PART/21/Ball_1:
#---1----|----2----|----3----|----4----|----5----|----6----|----7----|----8----|----9----|---10----|
/SHEL16/21
     25557    175832    176099    175805    175827    175837    175843    175861    176011
    175834    176100    175854    175877
    175846    176234    176077    176014
     25558    176232    176001    176210    176074    176123    176242    176243    176062
    176175    176286    176102    176101
    176139    176285    176284    176197
     25559    175887    175823    176124    176248    175813    176109    176137    176297
    176205    176180    175955    175899
    176111    176354    176057    176056
     25560    176201    176040    176163    176166    176352    176149    176193    176145
    176104    176162    176327    176223
    176121    176053    176254    176255
     25561    176040    176161    176164    176163    176149    176126    176027    176193
    176353    176130    176132    176162
    176263    176086    176023    176053
     25562    176093    175802    175857    176110    175822    175959    175866    175862
    175924    175879    176044    175816
    175896    175962    175906    175890
     25563    176340    176345    176364    176347    176338    176133    175997    176033
    176331    176170    176326    176190
# ... 268 like lines cut
#---1----|----2----|----3----|----4----|----5----|----6----|----7----|----8----|----9----|---10----|
/PART/22
Truss 1
         4         6        10
#---1----|----2----|----3----|----4----|----5----|----6----|----7----|----8----|----9----|---10----|
# TRUSS elements of /PART/22/Truss 1:
#---1----|----2----|----3----|----4----|----5----|----6----|----7----|----8----|----9----|---10----|
/TRUSS/22
         8    176050    176383
         9    175799    176383
        10    176351    176383
        11    176152    176383
        12    175959    176383
        13    175976    176383
#---1----|----2----|----3----|----4----|----5----|----6----|----7----|----8----|----9----|---10----|
#-  6. SUBSETS:
#---1----|----2----|----3----|----4----|----5----|----6----|----7----|----8----|----9----|---10----|
/SUBSET/8
TABLE
#---1----|----2----|----3----|----4----|----5----|----6----|----7----|----8----|----9----|---10----|
/SUBSET/9
mesh
         8        10
#---1----|----2----|----3----|----4----|----5----|----6----|----7----|----8----|----9----|---10----|
/SUBSET/10
BALLS
#---1----|----2----|----3----|----4----|----5----|----6----|----7----|----8----|----9----|---10----|
#-  7. GEOMETRICAL SETS:
#---1----|----2----|----3----|----4----|----5----|----6----|----7----|----8----|----9----|---10----|
/PROP/TYPE20/2
Shell-16nodes
#   Isolid    Ismstr               Icpre     Icstr     Inpts      Iint                            dn
        16         0                   0         0         0         0                             0
#                q_a                 q_b                   h
                   0                   0                   0
#             dt_min
                   0
#---1----|----2----|----3----|----4----|----5----|----6----|----7----|----8----|----9----|---10----|
/PROP/TYPE20/3
Shell-16nodes
#   Isolid    Ismstr               Icpre     Icstr     Inpts      Iint                            dn
        16         0                   0         0         0         0                             0
#                q_a                 q_b                   h
                   0                  .2                   0
#             dt_min
                   0
#---1----|----2----|----3----|----4----|----5----|----6----|----7----|----8----|----9----|---10----|
/PROP/TRUSS/4
truss
#               Area             Gap_ini
                  .5                   0
#---1----|----2----|----3----|----4----|----5----|----6----|----7----|----8----|----9----|---10----|
#-  8. FUNCTIONS:
#---1----|----2----|----3----|----4----|----5----|----6----|----7----|----8----|----9----|---10----|
/FUNCT/1
New FUNCT 1
#                  X                   Y
                   0             -.00981                                                            
         10000000000             -.00981                                                            
#---1----|----2----|----3----|----4----|----5----|----6----|----7----|----8----|----9----|---10----|
#-  9. GRAVITIES:
#---1----|----2----|----3----|----4----|----5----|----6----|----7----|----8----|----9----|---10----|
/GRAV/1
z ; -9.81 ms-2
#funct_IDT       DIR   skew_ID sensor_ID  grnod_ID                      Ascale_x           Fscale_Y
         1         Z         0         0       174                             0                   1
/GRNOD/PART/174
New GRNOD 172 _parts_subsubgroup_
        17        20        21        22
#---1----|----2----|----3----|----4----|----5----|----6----|----7----|----8----|----9----|---10----|
#- 10. INTERFACES:
#---1----|----2----|----3----|----4----|----5----|----6----|----7----|----8----|----9----|---10----|
/INTER/LAGMUL/TYPE16/1
ball 2 / table
# grnod_id   grbrick
       162        95
#                        Itied
                             0
/GRNOD/PART/162
New GRNOD 160 _parts_subsubgroup_
        17
/GRBRIC/PART/95
New GRBRIC 93 _parts_subsubgroup_
        18
#---1----|----2----|----3----|----4----|----5----|----6----|----7----|----8----|----9----|---10----|
/INTER/LAGMUL/TYPE16/2
ball 1 / table
# grnod_id   grbrick
       177       101
#                        Itied
                             0
/GRNOD/PART/177
New GRNOD 175 _parts_subsubgroup_
        21
/GRBRIC/PART/101
New GRBRIC 99 _parts_subsubgroup_
        18
#---1----|----2----|----3----|----4----|----5----|----6----|----7----|----8----|----9----|---10----|
/INTER/LAGMUL/TYPE16/3
ball / ball
# grnod_id   grbrick
       180       104
#                        Itied
                             1
/GRNOD/PART/180
New GRNOD 178 _parts_subsubgroup_
        17
/GRBRIC/PART/104
New GRBRIC 102 _parts_subsubgroup_
        21
#---1----|----2----|----3----|----4----|----5----|----6----|----7----|----8----|----9----|---10----|
#- 11. NODE GROUPS:
#---1----|----2----|----3----|----4----|----5----|----6----|----7----|----8----|----9----|---10----|
/GRNOD/NODE/181
GRNOD 181
    175797    175798    175799    175800    175801    175802    175803    175804    175805    175806
    175807    175808    175809    175810    175811    175812    175813    175814    175815    175816
    175817    175818    175819    175820    175821    175822    175823    175824    175825    175826
    175827    175828    175829    175830    175831    175832    175833    175834    175835    175836
    175837    175838    175839    175840    175841    175842    175843    175844    175845    175846
    175847    175848    175849    175850    175851    175852    175853    175854    175855    175856
    175857    175858    175859    175860    175861    175862    175863    175864    175865    175866
    175867    175868    175869    175870    175871    175872    175873    175874    175875    175876
    175877    175878    175879    175880    175881    175882    175883    175884    175885    175886
    175887    175888    175889    175890    175891    175892    175893    175894    175895    175896
    175897    175898    175899    175900    175901    175902    175903    175904    175905    175906
    175907    175908    175909    175910    175911    175912    175913    175914    175915    175916
    175917    175918    175919    175920    175921    175922    175923    175924    175925    175926
    175927    175928    175929    175930    175931    175932    175933    175934    175935    175936
    175937    175938    175939    175940    175941    175942    175943    175944    175945    175946
    175947    175948    175949    175950    175951    175952    175953    175954    175955    175956
    175957    175958    175959    175960    175961    175962    175963    175964    175965    175966
    175967    175968    175969    175970    175971    175972    175973    175974    175975    175976
    175977    175978    175979    175980    175981    175982    175983    175984    175985    175986
    175987    175988    175989    175990    175991    175992    175993    175994    175995    175996
# ... 39 like lines cut
#---1----|----2----|----3----|----4----|----5----|----6----|----7----|----8----|----9----|---10----|
#- 12. TIME HISTORIES:
#---1----|----2----|----3----|----4----|----5----|----6----|----7----|----8----|----9----|---10----|
/TH/PART/2
Balls
#     var1      var2      var3      var4      var5      var6      var7      var8      var9     var10
DEF       HE        IE        KE        KERB      MASS      RIE       RKE       RKERB     TURBKE    
XMOM      XXMOM     YCG       YYMOM     ZCG       ZMOM      ZZMOM     
#     Obj1      Obj2      Obj3      Obj4      Obj5      Obj6      Obj7      Obj8      Obj9     Obj10
        17        21
#---1----|----2----|----3----|----4----|----5----|----6----|----7----|----8----|----9----|---10----|
/TH/NODE/3
center
#     var1      var2      var3      var4      var5      var6      var7      var8      var9     var10
DEF       
#    NODid     Iskew                                           NODname
    175796         0center_group_0                                                                  
    176383         0center_group_1                                                                  
#---1----|----2----|----3----|----4----|----5----|----6----|----7----|----8----|----9----|---10----|
/END
#---1----|----2----|----3----|----4----|----5----|----6----|----7----|----8----|----9----|---10----|
