#RADIOSS STARTER
#--------------------------------------------------------------------------------------------------|
#- RADIOSS DECK WRITTEN BY HyperCrash
#HyperCrash 2019 (64 bits) 
#Wed Feb 19 12:47:47 2020
#-
#-
#- DATE	Wed Feb 19 12:47:47 2020
#--------------------------------------------------------------------------------------------------|
#---1----|----2----|----3----|----4----|----5----|----6----|----7----|----8----|----9----|---10----|
/BEGIN
FAILURE_FLD                                                                     
      2019         0
                   g                  mm                  ms
                   g                  mm                  ms
#---1----|----2----|----3----|----4----|----5----|----6----|----7----|----8----|----9----|---10----|
#-  1. CONTROL CARDS:
#---1----|----2----|----3----|----4----|----5----|----6----|----7----|----8----|----9----|---10----|
/TITLE
FLD FAILURE MODEL
#---1----|----2----|----3----|----4----|----5----|----6----|----7----|----8----|----9----|---10----|
/ANALY
#    N2D3D             IPARITH      ISUB
         0                   0         0
#---1----|----2----|----3----|----4----|----5----|----6----|----7----|----8----|----9----|---10----|
/DEF_SHELL
#   ISHELL    ISMSTR    ITHICK     IPLAS   ISTRAIN                        I_SH3N     IDRIL
         0         0         0         0         0                             0         0
#---1----|----2----|----3----|----4----|----5----|----6----|----7----|----8----|----9----|---10----|
/DEF_SOLID
#  I_SOLID    ISMSTR             ISTRAIN                                  IFRAME
         0         0                   0                                       0
#---1----|----2----|----3----|----4----|----5----|----6----|----7----|----8----|----9----|---10----|
/IOFLAG
#     IPRI               IGTYP     IOUTP    IOUTYY   IROOTYY     IDROT
         0                   0         0         0         0         0
#---1----|----2----|----3----|----4----|----5----|----6----|----7----|----8----|----9----|---10----|
/SPMD
#   DOMDEC     Nproc              Dkword             Nthread
         0         0                   0                   1
#---1----|----2----|----3----|----4----|----5----|----6----|----7----|----8----|----9----|---10----|
#-  2. MATERIALS:
#---1----|----2----|----3----|----4----|----5----|----6----|----7----|----8----|----9----|---10----|
/MAT/PLAS_JOHNS/1/1
Alu
#              RHO_I
               .0028                   0
#                  E                  Nu     Iflag
               71000                 .33         0
#                  a                   b                   n           EPS_p_max            SIG_max0
                 290               562.3                 .63                   0                 425
#                  c           EPS_DOT_0       ICC   Fsmooth               F_cut               Chard
                   0                   0         0         0                   0                   0
#                  m              T_melt              rhoC_p                 T_r
                   0                   0                   0                   0
/FAIL/FLD/1
#  Func_id  Ifail_sh          Fct_ID_adv                Rani                Dadv   Istrain     Ixfem
         5         4                   0                   0                   0         0         0
#---1----|----2----|----3----|----4----|----5----|----6----|----7----|----8----|----9----|---10----|
#-  3. NODES:
#---1----|----2----|----3----|----4----|----5----|----6----|----7----|----8----|----9----|---10----|
/NODE
      3562                6.35            -1.6E-15                   0
      3563            5.866224            -2.42987                   0
      3564            4.489647            -4.48965                   0
      3565             2.42976            -5.86596                   0
      3566             3.92E-8            -6.34937                   0
      3567            -2.42976            -5.86596                   0
      3568            -4.48964            -4.48965                   0
      3569            -5.86622            -2.42987                   0
      3570               -6.35            -1.3E-14                   0
      3571            -5.86622            2.429874                   0
      3572            -4.48964            4.489652                   0
      3573            -2.42976            5.865964                   0
      3574             -3.9E-8            6.349372                   0
      3575             2.42976            5.865964                   0
      3576            4.489647            4.489652                   0
      3577            5.866224            2.429874                   0
      3578             3.82844             1.99709                   0
      3580            3.870658             -1.8213                   0
      3581             3.38386            -3.40131                   0
      3582            1.772075            -3.90801                   0
# ... 318 like lines cut
#---1----|----2----|----3----|----4----|----5----|----6----|----7----|----8----|----9----|---10----|
#-  4. BOUNDARY CONDITIONS:
#---1----|----2----|----3----|----4----|----5----|----6----|----7----|----8----|----9----|---10----|
/BCS/1
FIXED
#  Tra rot   skew_ID  grnod_ID
   111 111         0         1
/GRNOD/GRNOD/1
New GRNOD 1
         3
/GRNOD/GRNOD/3
New GRNOD 1 _nodes_subgroup_
         2
/GRNOD/NODE/2
New GRNOD 1 _nodes_subsubgroup_
      3613      3623      3624      3625      3626      3633      3634      3635      3636      3637
      3660      3661      3662      3676      3677      3678      3875      3883      3884      3886
      3896      3898      3899      3901      3903      3906      3946      3947      3949      3960
      3971      3973
#---1----|----2----|----3----|----4----|----5----|----6----|----7----|----8----|----9----|---10----|
#-  5. PARTS:
#---1----|----2----|----3----|----4----|----5----|----6----|----7----|----8----|----9----|---10----|
/PART/1
SHELL4N
         1         1         0
#---1----|----2----|----3----|----4----|----5----|----6----|----7----|----8----|----9----|---10----|
# SHELL elements of /PART/1/SHELL4N:
#---1----|----2----|----3----|----4----|----5----|----6----|----7----|----8----|----9----|---10----|
/SHELL/1
       141      3697      3986      3987      3840
       142      3986      3696      3873      3987
       143      3987      3873      3601      3839
       144      3840      3987      3839      3578
       145      3697      3843      3988      3986
       146      3843      3580      3842      3988
       147      3988      3842      3599      3871
       148      3986      3988      3871      3696
       149      3599      3862      3989      3871
       150      3862      3592      3863      3989
       151      3989      3863      3688      3985
       152      3871      3989      3985      3696
       153      3688      3984      3990      3985
       154      3984      3687      3872      3990
       155      3990      3872      3601      3873
       156      3985      3990      3873      3696
       157      3601      3868      3991      3839
       158      3868      3595      3867      3991
       159      3991      3867      3596      3838
       160      3839      3991      3838      3578
# ... 300 like lines cut
#---1----|----2----|----3----|----4----|----5----|----6----|----7----|----8----|----9----|---10----|
#-  6. LOCAL_UNIT_SYSTEM:
#---1----|----2----|----3----|----4----|----5----|----6----|----7----|----8----|----9----|---10----|
/UNIT/1
unit for mat
#              MUNIT               LUNIT               TUNIT
                   g                  mm                  ms
#---1----|----2----|----3----|----4----|----5----|----6----|----7----|----8----|----9----|---10----|
#-  7. GEOMETRICAL SETS:
#---1----|----2----|----3----|----4----|----5----|----6----|----7----|----8----|----9----|---10----|
/PROP/SHELL/1
5NiP
#   Ishell    Ismstr     Ish3n    Idrill
        24         0         0         0
#                 hm                  hf                  hr                  dm                  dn
                   0                   0                   0                   0                   0
#        N   Istrain               Thick              Ashear              Ithick     Iplas
         5         1                   3                   0                   1         1
#---1----|----2----|----3----|----4----|----5----|----6----|----7----|----8----|----9----|---10----|
#-  8. FUNCTIONS:
#---1----|----2----|----3----|----4----|----5----|----6----|----7----|----8----|----9----|---10----|
/FUNCT/1
CONSTANT
#                  X                   Y
                   0                   1
                1000                   1
#---1----|----2----|----3----|----4----|----5----|----6----|----7----|----8----|----9----|---10----|
/FUNCT/2
STANDARD
#                  X                   Y
                   0                   0
                .015                  30
                .025                  35
                   1                  60
#---1----|----2----|----3----|----4----|----5----|----6----|----7----|----8----|----9----|---10----|
/FUNCT/3
LOAD
#                  X                   Y
                   0                   0
                .015                  30
                .025                  45
                   1                67.5
#---1----|----2----|----3----|----4----|----5----|----6----|----7----|----8----|----9----|---10----|
/FUNCT/4
UNLOAD
#                  X                   Y
                   0                   0
                .015                  30
                .025                  35
                   1                52.5
#---1----|----2----|----3----|----4----|----5----|----6----|----7----|----8----|----9----|---10----|
/FUNCT/5
Generic forming limit diagram 1
#                  X                   Y
            -.704678             .710847
            -.431807             .453687
            -.288475             .317913
            -.199357             .228713
            -.138257             .175643
            -.093219             .140729
             -.05771             .118549
            -.027634             .110638
              2.8E-5             .109944
             .030297             .106571
             .066457             .162285
             .107778             .189261
             .153418              .21544
             .202624             .235247
              .25477             .254617
             .309348             .279259
             .365945             .287431
             .424228             .301365
#---1----|----2----|----3----|----4----|----5----|----6----|----7----|----8----|----9----|---10----|
#-  9. RIGID WALLS:
#---1----|----2----|----3----|----4----|----5----|----6----|----7----|----8----|----9----|---10----|
/RWALL/SPHER/1
PUNCH
#  node_ID     Slide grnod_ID1 grnod_ID2
      4067         0         5         8
#           D_search                fric            Diameter                ffac       ifq
                   0                   0                12.7                   0         0
#               Mass                VX_0                VY_0                VZ_0
                   5                   0                   0                   0
/GRNOD/GRNOD/5
New GRNOD 5
         6
/GRNOD/GRNOD/6
New GRNOD 5 _parts_and_subsets_subgroup_
         7
/GRNOD/PART/7
New GRNOD 5 _parts_subsubgroup_
         1
/GRNOD/GRNOD/8
New GRNOD 8
        10
/GRNOD/GRNOD/10
New GRNOD 8 _nodes_subgroup_
         9
/GRNOD/NODE/9
New GRNOD 8 _nodes_subsubgroup_
      3613      3623      3624      3625      3626      3633      3634      3635      3636      3637
      3660      3661      3662      3676      3677      3678      3875      3883      3884      3886
      3896      3898      3899      3901      3903      3906      3946      3947      3949      3960
      3971      3973
#---1----|----2----|----3----|----4----|----5----|----6----|----7----|----8----|----9----|---10----|
#- 10. IMPOSED VELOCITIES:
#---1----|----2----|----3----|----4----|----5----|----6----|----7----|----8----|----9----|---10----|
/IMPVEL/1
1 m.s-1
#funct_IDT       Dir   skew_ID sensor_ID  grnod_ID  frame_ID     Icoor
         1         Z         0         0         4         0         0
#           Ascale_x            Fscale_Y              Tstart               Tstop
                   0                  -1                   0                   0
/GRNOD/NODE/4
ref_NODE_4067
      4067
#---1----|----2----|----3----|----4----|----5----|----6----|----7----|----8----|----9----|---10----|
#- 11. TIME HISTORIES:
#---1----|----2----|----3----|----4----|----5----|----6----|----7----|----8----|----9----|---10----|
/TH/RWALL/1
TH_RW
#     var1      var2      var3      var4      var5      var6      var7      var8      var9     var10
DEF       
#     Obj1      Obj2      Obj3      Obj4      Obj5      Obj6      Obj7      Obj8      Obj9     Obj10
         1
#---1----|----2----|----3----|----4----|----5----|----6----|----7----|----8----|----9----|---10----|
/TH/SHEL/2
Master
#     var1      var2      var3      var4      var5      var6      var7      var8      var9     var10
DEF       E1        E12       E2        EMAX      EMIN      F1        F12       F2        IEB       
IEM       K1        K12       K2        M1        M12       M2        OFF       PLAS      Q1        
Q2        SH1       SH2       STRAIN    STRESS    THIC      
#     Elid   Skew_ID                                            Elname
       145         0Master_group_0                                                                  
       153         0Master_group_0                                                                  
       162         0Master_group_0                                                                  
       206         0Master_group_0                                                                  
#---1----|----2----|----3----|----4----|----5----|----6----|----7----|----8----|----9----|---10----|
/END
#---1----|----2----|----3----|----4----|----5----|----6----|----7----|----8----|----9----|---10----|
