#RADIOSS STARTER
##========================================================================================
##
## Radioss Input Deck Generated by HyperMesh Version  : 2019.1.0.20
## Generated using HyperMesh-Radioss Template Version : 2019.1.0.20
## Date: 08-23-2019   Time: 13:25:53
##
##========================================================================================
##
##--------------------------------------------------------------------------------------------------
#--------------------------------------------------------------------------------------------------|
#- RADIOSS DECK WRITTEN BY HyperCrash
#HyperCrash 2019 (64 bits) 
#Mon Apr 22 07:50:55 2019
#-
#
#
#-
#- DATE	Mon Apr 22 07:50:55 2019
#--------------------------------------------------------------------------------------------------|
#---1----|----2----|----3----|----4----|----5----|----6----|----7----|----8----|----9----|---10----|
##
/BEGIN
rdv_0300_pressure
      2019         0
                  Mg                  mm                   s
                  Mg                  mm                   s
##
##--------------------------------------------------------------------------------------------------
## Title
##--------------------------------------------------------------------------------------------------
/TITLE
rdv_0300_pressure                                                                                                    
##--------------------------------------------------------------------------------------------------
## Material Law No 1. ELASTIC
##--------------------------------------------------------------------------------------------------
#---1----|----2----|----3----|----4----|----5----|----6----|----7----|----8----|----9----|---10----|
#-  2. MATERIALS:
#---1----|----2----|----3----|----4----|----5----|----6----|----7----|----8----|----9----|---10----|
#                  E                  nu
/MAT/ELAST/1
Steel                                                                                               
#              RHO_I
7.75000000000000E-09                 0.0
            193000.0                 0.3
##--------------------------------------------------------------------------------------------------
## NODES
##--------------------------------------------------------------------------------------------------
/NODE
         6                 0.0                 0.0                25.4
         7                25.4                 0.0                25.4
         8                25.4                25.4                25.4
         9                 0.0                25.4                25.4
        13                25.4                12.7                25.4
        14                12.7                 0.0                25.4
        15                 0.0                12.7                25.4
        16                12.7                25.4                25.4
        17                12.7                12.7                25.4
        19                 0.0                 0.0                12.7
        20                 0.0                12.7                12.7
        21                12.7                12.7                12.7
        22                12.7                 0.0                12.7
        23                 0.0                 0.0                 0.0
        24                 0.0                12.7-3.5527136800000E-15
        25                12.7                12.7-6.7148399500000E-15
        26                12.7                 0.0-3.5527136800000E-15
        27                25.4                12.7                12.7
        28                25.4                 0.0                12.7
        29                25.4                12.7-3.5527136800000E-15
# ... 1303 like lines cut
##--------------------------------------------------------------------------------------------------
## Boundary Conditions
##--------------------------------------------------------------------------------------------------
#---1----|----2----|----3----|----4----|----5----|----6----|----7----|----8----|----9----|---10----|
#-  4. BOUNDARY CONDITIONS:
#---1----|----2----|----3----|----4----|----5----|----6----|----7----|----8----|----9----|---10----|
##HWCOLOR loadcollectors 3 49
/BCS/3
Spc                                                                                                 
##  Tra rot   skew_ID  grnod_ID
   110 000         0         4
/GRNOD/PART/4
BCS Nodes                                                                                           
         2
##--------------------------------------------------------------------------------------------------
## Solid Elements (Hexaedron)
##--------------------------------------------------------------------------------------------------
/BRICK/2
         1         6        15        17        14        19        20        21        22
         2        19        20        21        22        23        24        25        26
         7        14        17        13         7        22        21        27        28
         8        22        21        27        28        26        25        29        30
         9        15         9        16        17        20        31        32        21
        10        20        31        32        21        24        33        34        25
        11        17        16         8        13        21        32        35        27
        12        21        32        35        27        25        34        36        29
        37        13         7        28        27        46        49        48        47
        38        46        49        48        47        50        53        52        51
        39        50        53        52        51        54        57        56        55
        40        54        57        56        55        58        61        60        59
        41        58        61        60        59        62        65        64        63
        42        62        65        64        63        66        69        68        67
        43        66        69        68        67        70        73        72        71
        44        70        73        72        71        74        77        76        75
        45        74        77        76        75        78        81        80        79
        46        78        81        80        79        82        85        84        83
        47        82        85        84        83        86        89        88        87
        48        86        89        88        87        90        93        92        91
# ... 780 like lines cut
##--------------------------------------------------------------------------------------------------
## General Solid Property Set (pid 14)
##--------------------------------------------------------------------------------------------------
#---1----|----2----|----3----|----4----|----5----|----6----|----7----|----8----|----9----|---10----|
#-  6. GEOMETRICAL SETS:
#---1----|----2----|----3----|----4----|----5----|----6----|----7----|----8----|----9----|---10----|
#                q_a                 q_b                   h            LAMBDA_V                MU_V
#             dt_min   istrain      IHKT
#---1----|----2----|----3----|----4----|----5----|----6----|----7----|----8----|----9----|---10----|
#-  7. FUNCTIONS:
#---1----|----2----|----3----|----4----|----5----|----6----|----7----|----8----|----9----|---10----|
/PROP/SOLID/1
steel_prop                                                                                          
#   Isolid    Ismstr               Icpre               Inpts    Itetra    Iframe 
        24         2                   0                             0         0                 0.0
                 0.0                 0.0                                     0.0                 0.0
                 0.0         0         1
##--------------------------------------------------------------------------------------------------
## Functions
##--------------------------------------------------------------------------------------------------
##HWCOLOR curves 1 4
/FUNCT/1
pressure curve                                                                                      
                 0.0                 0.0
1.00000000000000E-06            0.055158
2.00000000000000E-06            0.110316
3.00000000000000E-06            0.165474
4.00000000000000E-06            0.220632
5.00000000000000E-06             0.27579
6.00000000000000E-06            0.330948
7.00000000000000E-06            0.386106
8.00000000000000E-06            0.441264
9.00000000000000E-06            0.496422
1.00000000000000E-05             0.55158
1.10000000000000E-05            0.606738
1.20000000000000E-05            0.661896
1.30000000000000E-05            0.717054
1.40000000000000E-05            0.772212
1.50000000000000E-05             0.82737
1.60000000000000E-05            0.882528
1.70000000000000E-05            0.937686
1.80000000000000E-05            0.992844
1.90000000000000E-05            1.048002
# ... 9983 like lines cut
##--------------------------------------------------------------------------------------------------
## Pressure Loads
##--------------------------------------------------------------------------------------------------
#---1----|----2----|----3----|----4----|----5----|----6----|----7----|----8----|----9----|---10----|
#-  8. PRESSURE LOADS:
#---1----|----2----|----3----|----4----|----5----|----6----|----7----|----8----|----9----|---10----|
##HWCOLOR loadcollectors 2 6
/PLOAD/2
Pressure                                                                                            
##  surf_ID  functIDT sensor_ID                                          Ascale_x
         1         1         0                                               1.0                 1.0
##------------------------------------------------------------------------------
## Surf Segments
##------------------------------------------------------------------------------
#---1----|----2----|----3----|----4----|----5----|----6----|----7----|----8----|----9----|---10----|
/SURF/SEG/1
contactsurf1                                                                                        
         1        25        34        33        24
         2        34       280       317        33
         3       280       282       319       317
         4       282       284       321       319
         5       284       286       323       321
         6       286       288       325       323
         7       288       290       327       325
         8       290       292       329       327
         9       292       294       331       329
        10       294       296       333       331
        11       296       298       335       333
        12       298       300       337       335
        13       300       302       339       337
        14       302       304       341       339
        15       304       306       343       341
        16       306       308       345       343
        17       308       310       347       345
        18       310       312       349       347
        19       312       314       351       349
        20       313       315       314       312
# ... 380 like lines cut
##--------------------------------------------------------------------------------------------------
## Sets
##--------------------------------------------------------------------------------------------------
##--------------------------------------------------------------------------------------------------
## Parts
##--------------------------------------------------------------------------------------------------
#---1----|----2----|----3----|----4----|----5----|----6----|----7----|----8----|----9----|---10----|
#-  5. PARTS:
#---1----|----2----|----3----|----4----|----5----|----6----|----7----|----8----|----9----|---10----|
##HWCOLOR components 2 5
/PART/2
Comp                                                                                                
         1         1                              
##--------------------------------------------------------------------------------------------------
## Time History - Nodes
##--------------------------------------------------------------------------------------------------
##--------------------------------------------------------------------------------------------------
## Time History - Elems
##--------------------------------------------------------------------------------------------------
##--------------------------------------------------------------------------------------------------
## Time History - Parts
##--------------------------------------------------------------------------------------------------
/TH/PART/1
plate                                                                                               
DEF       
         2
##--------------------------------------------------------------------------------------------------
## Time History - Frames
##--------------------------------------------------------------------------------------------------
##--------------------------------------------------------------------------------------------------
## Time History - Interfaces and Rwalls
##--------------------------------------------------------------------------------------------------
##--------------------------------------------------------------------------------------------------
## Time History - Cyl Joints
##--------------------------------------------------------------------------------------------------
##--------------------------------------------------------------------------------------------------
## Time History - Accelerometer
##--------------------------------------------------------------------------------------------------
##--------------------------------------------------------------------------------------------------
## Time History - Monv and Sections
##--------------------------------------------------------------------------------------------------
##--------------------------------------------------------------------------------------------------
## Time History - Subsets
##--------------------------------------------------------------------------------------------------
##--------------------------------------------------------------------------------------------------
## Time History - Control vols
##--------------------------------------------------------------------------------------------------
##--------------------------------------------------------------------------------------------------
## Time History - Cross Sections
##--------------------------------------------------------------------------------------------------
##--------------------------------------------------------------------------------------------------
## Time History - Rigid Walls
##--------------------------------------------------------------------------------------------------
##--------------------------------------------------------------------------------------------------
## Time History - Load Collectors
##--------------------------------------------------------------------------------------------------
##--------------------------------------------------------------------------------------------------
## Time History - Sets
##--------------------------------------------------------------------------------------------------
##--------------------------------------------------------------------------------------------------
## Time History - Element Clusters
##--------------------------------------------------------------------------------------------------
##------------------------------------------------------------------------------
## End Of Radioss Block Deck
##------------------------------------------------------------------------------
/END
##--------------------------------------------------------------------------------------------------
## HM_FOOTER_COMMENTS - BEGIN
##--------------------------------------------------------------------------------------------------
#---1----|----2----|----3----|----4----|----5----|----6----|----7----|----8----|----9----|---10----|
## HM_FOOTER_COMMENTS - END
