#RADIOSS STARTER
##========================================================================================
##
## Radioss Input Deck Generated by HyperMesh Version  : 2023.1.0.21
## Generated using HyperMesh-Radioss Template Version : 2023.1.0.21-40550
## Date: 04-15-2024   Time: 15:50:14
##
##========================================================================================
##
##
/BEGIN
#Runname                                                                        
4_Modele_TYPE7                                                                  
#   Invers      Irun
      2023         0
#    Input_mass_unit   Input_length_unit     Input_time_unit
                  Mg                  mm                   s
#     Work_mass_unit    Work_length_unit      Work_time_unit
                  Mg                  mm                   s
#---1----|----2----|----3----|----4----|----5----|----6----|----7----|----8----|----9----|---10----|
/TITLE
rdv_0100_momentum_type7                                                                             
##
#---1----|----2----|----3----|----4----|----5----|----6----|----7----|----8----|----9----|---10----|
/NODE
#  node_ID                  Xc                  Yc                  Zc
         1               254.0               254.0                25.4
         2                 0.0               254.0                25.4
         3               254.0                 0.0                25.4
         4                 0.0                 0.0                25.4
         5               139.9               114.5              -10.16
         6               114.5               114.5              -10.16
         7               139.9               139.9              -10.16
         8               114.5               139.9              -10.16
         9               127.2               114.5              -10.16
        10               114.5               127.2              -10.16
        11               127.2               139.9              -10.16
        12               139.9               127.2              -10.16
        13               127.2               127.2              -10.16
        14               114.5               139.9              -22.86
        15               127.2               139.9              -22.86
        16               127.2               127.2              -22.86
        17               114.5               127.2              -22.86
        18               127.2               114.5              -22.86
        19               114.5               114.5              -22.86
        20               139.9               139.9              -22.86
# ... 1330 like lines cut
#---1----|----2----|----3----|----4----|----5----|----6----|----7----|----8----|----9----|---10----|
/BRICK/2
# brick_ID  node_ID1  node_ID2  node_ID3  node_ID4  node_ID5  node_ID6  node_ID7  node_ID8
         1         8        11        13        10        14        15        16        17
         2        10        13         9         6        17        16        18        19
         3        11         7        12        13        15        20        21        16
         4        13        12         5         9        16        21        22        18
         5        14        15        16        17        23        24        25        26
         6        17        16        18        19        26        25        27        28
         7        15        20        21        16        24        29        30        25
         8        16        21        22        18        25        30        31        27
/BRICK/1
# brick_ID  node_ID1  node_ID2  node_ID3  node_ID4  node_ID5  node_ID6  node_ID7  node_ID8
         9       146       149       154       145       469       470       471       472
        10       145       154       139       140       472       471       473       474
        11       149       150       153       154       470       475       476       471
        12       154       153       138       139       471       476       477       473
        13       150       151       155       153       475       478       479       476
        14       153       155       137       138       476       479       480       477
        15       151       152       156       155       478       481       482       479
        16       155       156       136       137       479       482       483       480
        17       152       129       130       156       481       484       485       482
        18       156       130       131       136       482       485       486       483
        19       157       159       113       114       487       488       489       490
        20       159       148       112       113       488       491       492       489
        21       150       149       160       158       475       470       493       494
        22       158       160       159       157       494       493       488       487
        23       149       146       147       160       470       469       495       493
        24       160       147       148       159       493       495       491       488
        25       127       161       116       117       496       497       498       499
        26       161       162       115       116       497       500       501       498
        27       162       157       114       115       500       487       490       501
        28       129       152       163       128       484       481       502       503
# ... 780 like lines cut
#---1----|----2----|----3----|----4----|----5----|----6----|----7----|----8----|----9----|---10----|
##HWCOLOR components 1 4
/PART/1
#part_title                                                                                         
Plate                                                                                               
#  prop_ID    mat_ID                         Thick
         1         1                              
#---1----|----2----|----3----|----4----|----5----|----6----|----7----|----8----|----9----|---10----|
##HWCOLOR components 2 5
/PART/2
#part_title                                                                                         
Impactor                                                                                            
#  prop_ID    mat_ID                         Thick
         1         1                              
#---1----|----2----|----3----|----4----|----5----|----6----|----7----|----8----|----9----|---10----|
#                  E                  nu
##HWCOLOR materials 1 11
/MAT/ELAST/1
steel                                                                                               
#              RHO_I               RHO_O
7.75000000000000E-09                 0.0
#                  E                  nu
            193000.0                 0.3
#---1----|----2----|----3----|----4----|----5----|----6----|----7----|----8----|----9----|---10----|
#                q_a                 q_b                   h            LAMBDA_V                MU_V
#             dt_min   istrain      IHKT
##HWCOLOR properties 1 11
/PROP/SOLID/1
solid                                                                                               
#   Isolid    Ismstr      Iale     Icpre  Itetra10     Inpts   Itetra4    Iframe                  Dn
        24         0                   0                             0         0                 0.0
#                 qa                  qb                   h              Lambda                  Mu
                 0.0                 0.0                                     0.0                 0.0
#         deltaT_min            Vdef_min            Vdef_max             ASP_max             COL_min
                 0.0                                                                                
#---1----|----2----|----3----|----4----|----5----|----6----|----7----|----8----|----9----|---10----|
##HMGROUP  3 3
/INTER/TYPE7/3
#Title                                                                                              
group1                                                                                              
# grnod_id   surf_id      Istf      Ithe      Igap                Ibag      Idel     Icurv      Iadm
         4         5                                                                               0
#         Fscale_gap             Gap_max             Fpenmax
                                                            
#              Stmin               Stmax                                   dtmin  Irem_gap   Irem_i2
                                                                                                    
#              Stfac                Fric              Gapmin              Tstart               Tstop
                                     0.1                 0.2                                        
#      IBC                        Inacti                VisS                VisF              Bumult
       000                                                                                          
#    Ifric    Ifiltr               Xfreq     Iform   sens_ID   fct_IDF            Ascale_F   fric_ID
                                                                                                    
## HM Message : Set reference is a formula set and will be exported later
## HM Warning: The set associated with the above card is being output in a different location of the deck.
#---1----|----2----|----3----|----4----|----5----|----6----|----7----|----8----|----9----|---10----|
##HMNAME LOADCOLS          1misc1                                                                   
##HWCOLOR loadcollectors 1 11
/BCS/1
SPC_plate                                                                                           
#  Tra rot   skew_ID  grnod_ID
   110 000         0         3
#---1----|----2----|----3----|----4----|----5----|----6----|----7----|----8----|----9----|---10----|
##HMNAME LOADCOLS          1misc1                                                                   
##HWCOLOR loadcollectors 1 11
/BCS/2
SPC_impactor                                                                                        
#  Tra rot   skew_ID  grnod_ID
   110 111         0         1
#---1----|----2----|----3----|----4----|----5----|----6----|----7----|----8----|----9----|---10----|
##HMNAME LOADCOLS          4Impdisp                                                                 
##HWCOLOR loadcollectors 4 59
/IMPDISP/3
Loads                                                                                               
#   Ifunct       DIR     Iskew   Isensor   Gnod_id     Frame     Icoor
         1         Z         0         0         2                   0
#            Scale_x             Scale_y              Tstart               Tstop
                                                         0.0                    
#---1----|----2----|----3----|----4----|----5----|----6----|----7----|----8----|----9----|---10----|
##HWCOLOR curves 1 11
/FUNCT/1
#title                                                                                              
curve1                                                                                              
#                  X                   Y
1.00000000000000E-03                 0.0
               0.002                2.08
               0.003                4.08
               0.004                6.08
               0.005                8.08
               0.006                9.96
               0.007               12.16
               0.008               14.16
               0.009               16.16
                0.01               18.16
               0.011               16.16
               0.012               14.16
               0.013               12.16
               0.014                9.96
               0.015                8.08
               0.016                6.08
               0.017                4.08
               0.018                2.08
               0.019                 0.0
#---1----|----2----|----3----|----4----|----5----|----6----|----7----|----8----|----9----|---10----|
/GRNOD/SURF/4
#title                                                                                              
imactor_nodes                                                                                       
# item_ID1  item_ID2  item_ID3  item_ID4  item_ID5  item_ID6  item_ID7  item_ID8  item_ID9 item_ID10
        11
#---1----|----2----|----3----|----4----|----5----|----6----|----7----|----8----|----9----|---10----|
/GRNOD/PART/1
#title                                                                                              
spc_impactor_nodes                                                                                  
# item_ID1  item_ID2  item_ID3  item_ID4  item_ID5  item_ID6  item_ID7  item_ID8  item_ID9 item_ID10
         2
#---1----|----2----|----3----|----4----|----5----|----6----|----7----|----8----|----9----|---10----|
/GRNOD/PART/2
#title                                                                                              
vel_nodes                                                                                           
# item_ID1  item_ID2  item_ID3  item_ID4  item_ID5  item_ID6  item_ID7  item_ID8  item_ID9 item_ID10
         2
#---1----|----2----|----3----|----4----|----5----|----6----|----7----|----8----|----9----|---10----|
/GRNOD/PART/3
#title                                                                                              
spc_plate_nodes                                                                                     
# item_ID1  item_ID2  item_ID3  item_ID4  item_ID5  item_ID6  item_ID7  item_ID8  item_ID9 item_ID10
         1
#---1----|----2----|----3----|----4----|----5----|----6----|----7----|----8----|----9----|---10----|
/GRNOD/SURF/9
#title                                                                                              
plate contact nodes                                                                                 
# item_ID1  item_ID2  item_ID3  item_ID4  item_ID5  item_ID6  item_ID7  item_ID8  item_ID9 item_ID10
         5
#---1----|----2----|----3----|----4----|----5----|----6----|----7----|----8----|----9----|---10----|
/SURF/PART/EXT/5
#title                                                                                              
plate_surface                                                                                       
# item_ID1  item_ID2  item_ID3  item_ID4  item_ID5  item_ID6  item_ID7  item_ID8  item_ID9 item_ID10
         1
#---1----|----2----|----3----|----4----|----5----|----6----|----7----|----8----|----9----|---10----|
/SURF/PART/EXT/11
#title                                                                                              
impactor_surface                                                                                    
# item_ID1  item_ID2  item_ID3  item_ID4  item_ID5  item_ID6  item_ID7  item_ID8  item_ID9 item_ID10
         2
#---1----|----2----|----3----|----4----|----5----|----6----|----7----|----8----|----9----|---10----|
/TH/INTER/2
#thgroup_name
TH INTER                                                                                            
#  var_ID1   var_ID2   var_ID3   var_ID4   var_ID5   var_ID6   var_ID7   var_ID8   var_ID9  var_ID10
DEF       
#  Obj_ID1   Obj_ID2   Obj_ID3   Obj_ID4   Obj_ID5   Obj_ID6   Obj_ID7   Obj_ID8   Obj_ID9  Obj_ID10
         3
#---1----|----2----|----3----|----4----|----5----|----6----|----7----|----8----|----9----|---10----|
/TH/NODE/3
#thgroup_name
Plate                                                                                               
#  var_ID1   var_ID2   var_ID3   var_ID4   var_ID5   var_ID6   var_ID7   var_ID8   var_ID9  var_ID10
DEF       
#  node_ID   skew_ID                                         node_name
       940         0                                                                                
#---1----|----2----|----3----|----4----|----5----|----6----|----7----|----8----|----9----|---10----|
/TH/NODE/4
#thgroup_name
impactor                                                                                            
#  var_ID1   var_ID2   var_ID3   var_ID4   var_ID5   var_ID6   var_ID7   var_ID8   var_ID9  var_ID10
DEF       
#  node_ID   skew_ID                                         node_name
        13         0                                                                                
#---1----|----2----|----3----|----4----|----5----|----6----|----7----|----8----|----9----|---10----|
/TH/NODE/5
#thgroup_name
PLate Top                                                                                           
#  var_ID1   var_ID2   var_ID3   var_ID4   var_ID5   var_ID6   var_ID7   var_ID8   var_ID9  var_ID10
DEF       
#  node_ID   skew_ID                                         node_name
      1021         0                                                                                
#---1----|----2----|----3----|----4----|----5----|----6----|----7----|----8----|----9----|---10----|
/TH/NODE/6
#thgroup_name
Impactor Top                                                                                        
#  var_ID1   var_ID2   var_ID3   var_ID4   var_ID5   var_ID6   var_ID7   var_ID8   var_ID9  var_ID10
DEF       
#  node_ID   skew_ID                                         node_name
         5         0                                                                                
#---1----|----2----|----3----|----4----|----5----|----6----|----7----|----8----|----9----|---10----|
/TH/PART/1
#thgroup_name
part output                                                                                         
#  var_ID1   var_ID2   var_ID3   var_ID4   var_ID5   var_ID6   var_ID7   var_ID8   var_ID9  var_ID10
DEF       
#  Obj_ID1   Obj_ID2   Obj_ID3   Obj_ID4   Obj_ID5   Obj_ID6   Obj_ID7   Obj_ID8   Obj_ID9  Obj_ID10
         2         1
##--------------------------------------------------------------------------------------------------
## End Of Radioss Block Deck
##--------------------------------------------------------------------------------------------------
/END
##<?xml version="1.0" encoding="utf-8"?>
##<Altair_XML_Export>
##    <UDM xmlns:SOAP-ENV="http://schemas.xmlsoap.org/soap/envelope/" xmlns:SOAP-ENC="http://schemas.xmlsoap.org/soap/encoding/" xmlns:xsi="http://www.w3.org/2001/XMLSchema-instance" xmlns:xsd="http://www.w3.org/2001/XMLSchema" xmlns:udmcfg="http://schemas.altair.com/AltairUDMRuntimeConfig" xmlns:udmxml="http://schemas.altair.com/AltairUDM" xmlns:importrules="http://schemas.altair.com/hsm/importru
##        <udmxml:EntityCollection xsi:type="udmxml:EntityCollectionCType">
##            <udmxml:Entity xsi:type="udmxml:AssemblyDMCType" displayName="HW_Assembly" contentDefinitionType="UDMAssemblyDM" id="017227f50b19214ca368376b9a54aed0:0">
##                <udmxml:Children>
##                    <udmxml:Child xsi:type="udmxml:ChildCType" refId="04118821cf815d41b1e880d71bbc5ec4:0" timestamp="1713188789894018" childFlags="0" groupName="boas" contentDefinitionType="UDMBOA"/>
##                </udmxml:Children>
##            </udmxml:Entity>
##            <udmxml:Entity xsi:type="udmxml:BOACType" displayName="HW_BOA" contentDefinitionType="UDMBOA" id="04118821cf815d41b1e880d71bbc5ec4:0">
##                <udmxml:Children>
##                    <udmxml:Child xsi:type="udmxml:ChildCType" refId="7825da385037ef43a806007d414133c7:0" timestamp="1713188789894018" childFlags="0" groupName="parts" contentDefinitionType="UDMPartProtoOcc">
##                        <AdditionalIdList xsi:type="udmxml:AdditionalIdCType" xmlns="http://schemas.altair.com/AltairUDM" keyValue="Model" keyName="displayname" contentDefinitionType="UDMPartProtoOcc"/>
##                    </udmxml:Child>
##                </udmxml:Children>
##            </udmxml:Entity>
##            <udmxml:Entity xsi:type="udmxml:PartCType" displayName="Plate.p" contentDefinitionType="UDMPartProto" id="ab577b9ee2cac748bc18bb3f70b7b26c:0">
##                <udmxml:Attributes>
##                    <udmxml:Attribute xsi:type="udmxml:AttributeCType" valueutf8="-" type="string" name="studyrevision" displayName="STUDY_REVISION">-</udmxml:Attribute>
##                    <udmxml:Attribute xsi:type="udmxml:AttributeCType" valueutf8="Plate" type="string" name="HW_UID">Plate</udmxml:Attribute>
##                    <udmxml:Attribute xsi:type="udmxml:AttributeCType" valueutf8="-" type="string" name="PLMXML_PRODUCTREVISION_REVISION">-</udmxml:Attribute>
##                </udmxml:Attributes>
##            </udmxml:Entity>
##            <udmxml:Entity xsi:type="udmxml:PartCType" displayName="rdv_0100_momentum_type7_0000.rad.p" contentDefinitionType="UDMPartProto" id="40b18669e7cf1e4a9cd6dbe038dc9152:0">
##                <udmxml:Attributes>
##                    <udmxml:Attribute xsi:type="udmxml:AttributeCType" valueutf8="-" type="string" name="studyrevision" displayName="STUDY_REVISION">-</udmxml:Attribute>
##                    <udmxml:Attribute xsi:type="udmxml:AttributeCType" valueutf8="rdv_0100_momentum_type7_0000.rad" type="string" name="HW_UID">rdv_0100_momentum_type7_0000.rad</udmxml:Attribute>
##                    <udmxml:Attribute xsi:type="udmxml:AttributeCType" valueutf8="-" type="string" name="PLMXML_PRODUCTREVISION_REVISION">-</udmxml:Attribute>
##                </udmxml:Attributes>
##                <udmxml:Children>
##                    <udmxml:Child xsi:type="udmxml:ChildCType" refId="1ce8ce48aa00d848b7c8235083f7230a:0" timestamp="1713188793202750" childFlags="0" groupName="partprotoinst" contentDefinitionType="UDMPartProtoInst"/>
##                </udmxml:Children>
##            </udmxml:Entity>
##            <udmxml:Entity xsi:type="udmxml:PartCType" displayName="Module Model.p" contentDefinitionType="UDMPartProto" id="709c4d1c2e5fc14f9394b24fe4ed75e2:0">
##                <udmxml:Children>
##                    <udmxml:Child xsi:type="udmxml:ChildCType" refId="d989e781c61bf44099c8144970592ada:0" timestamp="1713188793202750" childFlags="0" groupName="partprotoinst" contentDefinitionType="UDMPartProtoInst"/>
##                </udmxml:Children>
##            </udmxml:Entity>
##            <udmxml:Entity xsi:type="udmxml:PartCType" displayName="Plate" contentDefinitionType="UDMPartProtoInst" id="1ce8ce48aa00d848b7c8235083f7230a:0">
##                <udmxml:Children>
##                    <udmxml:Child xsi:type="udmxml:ChildCType" refId="ab577b9ee2cac748bc18bb3f70b7b26c:0" timestamp="1713188793203742" childFlags="0" groupName="partprotos" contentDefinitionType="UDMPartProto"/>
##                </udmxml:Children>
##            </udmxml:Entity>
##            <udmxml:Entity xsi:type="udmxml:PartCType" displayName="rdv_0100_momentum_type7_0000.rad" contentDefinitionType="UDMPartProtoInst" id="d989e781c61bf44099c8144970592ada:0">
##                <udmxml:Children>
##                    <udmxml:Child xsi:type="udmxml:ChildCType" refId="40b18669e7cf1e4a9cd6dbe038dc9152:0" timestamp="1713188793202750" childFlags="0" groupName="partprotos" contentDefinitionType="UDMPartProto"/>
##                </udmxml:Children>
##            </udmxml:Entity>
##            <udmxml:Entity xsi:type="udmxml:PartCType" protoInstanceRefId="1ce8ce48aa00d848b7c8235083f7230a:0" prototypeRefId="ab577b9ee2cac748bc18bb3f70b7b26c:0" displayName="Plate" contentDefinitionType="UDMPartProtoOcc" id="9e6b6be282272c4bacba1ca9671edc98:0">
##                <udmxml:Attributes>
##                    <udmxml:Attribute xsi:type="udmxml:AttributeCType" valueutf8="ab577b9ee2cac748bc18bb3f70b7b26c" type="string" name="protoref" displayName="Prototype reference">ab577b9ee2cac748bc18bb3f70b7b26c</udmxml:Attribute>
##                    <udmxml:Attribute xsi:type="udmxml:AttributeCType" valueutf8="1ce8ce48aa00d848b7c8235083f7230a" type="string" name="protoinstanceref" displayName="Prototype Instance reference">1ce8ce48aa00d848b7c8235083f7230a</udmxml:Attribute>
##                    <udmxml:Attribute xsi:type="udmxml:AttributeCType" valueutf8="Components(1)" type="string" name="EntitySelectionExp">Components(1)</udmxml:Attribute>
##                    <udmxml:Attribute xsi:type="udmxml:AttributeCType" valueutf8="1" type="string" name="SelectionExp">1</udmxml:Attribute>
##                    <udmxml:Attribute xsi:type="udmxml:AttributeCType" valueutf8="11" type="string" name="UdmxmlString_HmOccurrenceColor">11</udmxml:Attribute>
##                    <udmxml:Attribute xsi:type="udmxml:AttributeCType" valueutf8="6" type="string" name="UdmxmlString_HmOccurrenceId">6</udmxml:Attribute>
##                    <udmxml:Attribute xsi:type="udmxml:AttributeCType" valueutf8="9757073" type="string" name="UdmxmlString_HmOccurrenceTrueColor">9757073</udmxml:Attribute>
##                </udmxml:Attributes>
##            </udmxml:Entity>
##            <udmxml:Entity xsi:type="udmxml:PartCType" protoInstanceRefId="d989e781c61bf44099c8144970592ada:0" prototypeRefId="40b18669e7cf1e4a9cd6dbe038dc9152:0" displayName="rdv_0100_momentum_type7_0000.rad" contentDefinitionType="UDMPartProtoOcc" id="3eaeceb47f3ef449a06683558fdc6071:0">
##                <udmxml:Attributes>
##                    <udmxml:Attribute xsi:type="udmxml:AttributeCType" valueutf8="40b18669e7cf1e4a9cd6dbe038dc9152" type="string" name="protoref" displayName="Prototype reference">40b18669e7cf1e4a9cd6dbe038dc9152</udmxml:Attribute>
##                    <udmxml:Attribute xsi:type="udmxml:AttributeCType" valueutf8="d989e781c61bf44099c8144970592ada" type="string" name="protoinstanceref" displayName="Prototype Instance reference">d989e781c61bf44099c8144970592ada</udmxml:Attribute>
##                    <udmxml:Attribute xsi:type="udmxml:AttributeCType" valueutf8="59" type="string" name="UdmxmlString_HmOccurrenceColor">59</udmxml:Attribute>
##                    <udmxml:Attribute xsi:type="udmxml:AttributeCType" valueutf8="4" type="string" name="UdmxmlString_HmOccurrenceId">4</udmxml:Attribute>
##                    <udmxml:Attribute xsi:type="udmxml:AttributeCType" valueutf8="6677714" type="string" name="UdmxmlString_HmOccurrenceTrueColor">6677714</udmxml:Attribute>
##                </udmxml:Attributes>
##                <udmxml:Children>
##                    <udmxml:Child xsi:type="udmxml:ChildCType" refId="9e6b6be282272c4bacba1ca9671edc98:0" timestamp="1713188793203742" childFlags="0" groupName="partprotooccs" contentDefinitionType="UDMPartProtoOcc">
##                        <AdditionalIdList xsi:type="udmxml:AdditionalIdCType" xmlns="http://schemas.altair.com/AltairUDM" keyValue="Plate" keyName="displayname" contentDefinitionType="UDMPartProtoOcc"/>
##                    </udmxml:Child>
##                </udmxml:Children>
##            </udmxml:Entity>
##            <udmxml:Entity xsi:type="udmxml:PartCType" prototypeRefId="709c4d1c2e5fc14f9394b24fe4ed75e2:0" displayName="Model" contentDefinitionType="UDMPartProtoOcc" id="7825da385037ef43a806007d414133c7:0">
##                <udmxml:Attributes>
##                    <udmxml:Attribute xsi:type="udmxml:AttributeCType" valueutf8="709c4d1c2e5fc14f9394b24fe4ed75e2" type="string" name="protoref" displayName="Prototype reference">709c4d1c2e5fc14f9394b24fe4ed75e2</udmxml:Attribute>
##                    <udmxml:Attribute xsi:type="udmxml:AttributeCType" valueutf8="Components(2)" type="string" name="EntitySelectionExp">Components(2)</udmxml:Attribute>
##                    <udmxml:Attribute xsi:type="udmxml:AttributeCType" valueutf8="2" type="string" name="SelectionExp">2</udmxml:Attribute>
##                    <udmxml:Attribute xsi:type="udmxml:AttributeCType" valueutf8="11" type="string" name="UdmxmlString_HmOccurrenceColor">11</udmxml:Attribute>
##                    <udmxml:Attribute xsi:type="udmxml:AttributeCType" valueutf8="2" type="string" name="UdmxmlString_HmOccurrenceId">2</udmxml:Attribute>
##                    <udmxml:Attribute xsi:type="udmxml:AttributeCType" valueutf8="9757073" type="string" name="UdmxmlString_HmOccurrenceTrueColor">9757073</udmxml:Attribute>
##                    <udmxml:Attribute xsi:type="udmxml:AttributeCType" valueutf8="true" type="boolean" name="pseudo root">true</udmxml:Attribute>
##                </udmxml:Attributes>
##                <udmxml:Children>
##                    <udmxml:Child xsi:type="udmxml:ChildCType" refId="3eaeceb47f3ef449a06683558fdc6071:0" timestamp="1713188793202750" childFlags="0" groupName="partprotooccs" contentDefinitionType="UDMPartProtoOcc">
##                        <AdditionalIdList xsi:type="udmxml:AdditionalIdCType" xmlns="http://schemas.altair.com/AltairUDM" keyValue="rdv_0100_momentum_type7_0000.rad" keyName="displayname" contentDefinitionType="UDMPartProtoOcc"/>
##                    </udmxml:Child>
##                </udmxml:Children>
##            </udmxml:Entity>
##        </udmxml:EntityCollection>
##        <udmxml:RelationCollection xsi:type="udmxml:RelationCollectionCType"/>
##        <udmxml:RootEntities xsi:type="udmxml:RootEntityCollectionCType">
##            <udmxml:ItemId>017227f50b19214ca368376b9a54aed0:0</udmxml:ItemId>
##        </udmxml:RootEntities>
##    </UDM>
##</Altair_XML_Export>
