#RADIOSS STARTER
#--------------------------------------------------------------------------------------------------|
#- RADIOSS DECK WRITTEN BY HyperCrash
#HyperCrash 14.0 (64 bits) 
#Mon Dec 21 15:14:02 2015
#-
#--------------------------------------------------------------------------------------------------|
#- RADIOSS DECK WRITTEN BY HyperCrash
#HyperCrash 10.0 SA2 (64 bits)
#Tue Jul 20 11:22:46 2010
#-
#
#
#-
#- DATE	Tue Jul 20 11:22:46 2010
#--------------------------------------------------------------------------------------------------|
#---1----|----2----|----3----|----4----|----5----|----6----|----7----|----8----|----9----|---10----|
#-
#- DATE	Mon Dec 21 15:14:02 2015
#--------------------------------------------------------------------------------------------------|
#---1----|----2----|----3----|----4----|----5----|----6----|----7----|----8----|----9----|---10----|
/BEGIN
TEST7L                                                                          
       140         0
                   g                  mm                  ms
                   g                  mm                  ms
#---1----|----2----|----3----|----4----|----5----|----6----|----7----|----8----|----9----|---10----|
#-  1. CONTROL CARDS:
#---1----|----2----|----3----|----4----|----5----|----6----|----7----|----8----|----9----|---10----|
/TITLE
Billard_anglais
#---1----|----2----|----3----|----4----|----5----|----6----|----7----|----8----|----9----|---10----|
/ANALY
#    N2D3D             IPARITH      ISUB
         0                   0         0
#---1----|----2----|----3----|----4----|----5----|----6----|----7----|----8----|----9----|---10----|
/DEF_SHELL
#   ISHELL    ISMSTR    ITHICK     IPLAS   ISTRAIN                        I_SH3N     IDRIL
         0         0         0         0         0                             1         0
#---1----|----2----|----3----|----4----|----5----|----6----|----7----|----8----|----9----|---10----|
/DEF_SOLID
#  I_SOLID    ISMSTR             ISTRAIN                                  IFRAME
         0         0                   0                                       0
#---1----|----2----|----3----|----4----|----5----|----6----|----7----|----8----|----9----|---10----|
/IOFLAG
#     IPRI               IGTYP     IOUTP    IOUTYY   IROOTYY     IDROT
         5                   0         0         0         0         0
#---1----|----2----|----3----|----4----|----5----|----6----|----7----|----8----|----9----|---10----|
/SHFRA/V4
#---1----|----2----|----3----|----4----|----5----|----6----|----7----|----8----|----9----|---10----|
/SPMD
#   DOMDEC     Nproc              Dkword             Nthread
         0         0                   0                   1
#---1----|----2----|----3----|----4----|----5----|----6----|----7----|----8----|----9----|---10----|
#-  2. MATERIALS:
#---1----|----2----|----3----|----4----|----5----|----6----|----7----|----8----|----9----|---10----|
/MAT/ELAST/1
Balls_bakelit_phenolic_formaldehyde_resin
#              RHO_I
              .00137              .00137
#                  E                  nu
               10500                  .3
#---1----|----2----|----3----|----4----|----5----|----6----|----7----|----8----|----9----|---10----|
/MAT/ELAST/4
Plateau_ardoise
#              RHO_I
               .0028               .0028
#                  E                  nu
                6200                   0
#---1----|----2----|----3----|----4----|----5----|----6----|----7----|----8----|----9----|---10----|
#-  3. NODES:
#---1----|----2----|----3----|----4----|----5----|----6----|----7----|----8----|----9----|---10----|
/NODE
         1                   0                   0                   0
      1121                   0                  -3                   0
      1141                   2                  -3                   0
      1161                   4                  -3                   0
      1181                   6                  -3                   0
      2101                   8                  -3                   0
      2121                  12                  -3                   0
    152379         522.4521211        229.77666303          48.4074754
    152380        526.73904725                 225        46.610539875
    152381        532.56476405                 225        21.378783445
    152382        531.36983145        233.00750825            25.60012
    152383         525.8569254        244.30065795         35.10662085
    152384              512.63        249.82300735          30.7240122
    152385              512.63          219.946022          50.4418608
    152386        503.18299655        212.51240135          38.4448371
    152387              512.63        204.09161665         39.85489045
    152388        489.91130515       220.214784305         35.56675365
    152389              512.63        239.10904725          46.6105399
    152390        517.42238081         234.7945574          48.4160595
    152391        522.07700345        237.48759865          38.4448371
# ... 1184 like lines cut
#---1----|----2----|----3----|----4----|----5----|----6----|----7----|----8----|----9----|---10----|
#-  4. BOUNDARY CONDITIONS:
#---1----|----2----|----3----|----4----|----5----|----6----|----7----|----8----|----9----|---10----|
/BCS/1
Fixing
#  Tra rot   skew_ID  grnod_ID
   111 111         0       115
/GRNOD/NODE/115
New GRNOD 114 _nodes_subsubgroup_
    157570    159079    159200    163107    163236    175607    175651    175795
#---1----|----2----|----3----|----4----|----5----|----6----|----7----|----8----|----9----|---10----|
#-  5. PARTS:
#---1----|----2----|----3----|----4----|----5----|----6----|----7----|----8----|----9----|---10----|
/PART/11
Ball_1
         1         1        10
#---1----|----2----|----3----|----4----|----5----|----6----|----7----|----8----|----9----|---10----|
# SHEL16 elements of /PART/11/Ball_1:
#---1----|----2----|----3----|----4----|----5----|----6----|----7----|----8----|----9----|---10----|
/SHEL16/11
     24885    152570    152680    152561    152878    152568    152838    152527    152542
    152687    152821    152688    152802
    152545    152540    152523    152552
     24886    152855    152868    152867    152857    152875    152652    152804    152565
    152573    152811    152589    152724
    152496    152725    152588    152727
     24887    152459    152518    152486    152454    152452    152446    152431    152538
    152449    152519    152424    152408
    152440    152937    152393    152908
     24888    152849    152863    152529    152778    152803    152846    152891    152490
    152562    152786    152435    152951
    152497    152666    152729    152574
     24889    152635    152447    152504    152649    152470    152455    152607    152498
    152488    152936    152517    152428
    152814    152793    152911    152631
     24890    152462    152642    152448    152447    152382    152476    152425    152455
    152534    152473    152646    152495
    152893    152621    152641    152505
     24891    152852    152861    152868    152855    152876    152877    152652    152875
    152579    152564    152573    152810
# ... 268 like lines cut
#---1----|----2----|----3----|----4----|----5----|----6----|----7----|----8----|----9----|---10----|
/PART/17
Ball_2
         1         1        10
#---1----|----2----|----3----|----4----|----5----|----6----|----7----|----8----|----9----|---10----|
# SHEL16 elements of /PART/17/Ball_2:
#---1----|----2----|----3----|----4----|----5----|----6----|----7----|----8----|----9----|---10----|
/SHEL16/17
     25461    156392    156324    156057    156056    156310    156012    155876    155866
    156258    155995    155944    156395
    156016    156118    155989    155990
     25462    156051    155961    155956    156050    156058    156029    156028    155999
    156198    156039    156004    156005
    155874    156040    156041    156173
     25463    155956    155955    155975    156208    156028    156068    156435    155873
    156425    156426    156014    156015
    156036    156037    156193    156194
     25464    156305    156303    155928    156412    156253    155940    155859    156064
    155901    156010    156423    156278
    155884    156062    156155    156098
     25465    156300    156304    156347    156350    156355    156328    156315    156112
    156368    156366    156261    156267
    156345    155893    156260    155886
     25466    156392    156292    156017    156338    156310    156325    156354    156361
    156370    156319    156320    156313
    156404    156389    156318    156413
     25467    156138    156128    156125    156126    156164    156145    155914    156195
    156119    156183    156154    156127
# ... 268 like lines cut
#---1----|----2----|----3----|----4----|----5----|----6----|----7----|----8----|----9----|---10----|
/PART/18
Plateau
         2         4         8
#---1----|----2----|----3----|----4----|----5----|----6----|----7----|----8----|----9----|---10----|
# SHEL16 elements of /PART/18/Plateau:
#---1----|----2----|----3----|----4----|----5----|----6----|----7----|----8----|----9----|---10----|
/SHEL16/18
      3502    157570    159200    175795    163236    157470    159158    175776    163247
    159079    175607    175651    163107
    159073    175639    175561    163256
#---1----|----2----|----3----|----4----|----5----|----6----|----7----|----8----|----9----|---10----|
#-  6. SUBSETS:
#---1----|----2----|----3----|----4----|----5----|----6----|----7----|----8----|----9----|---10----|
/SUBSET/8
TABLE
#---1----|----2----|----3----|----4----|----5----|----6----|----7----|----8----|----9----|---10----|
/SUBSET/9
BILLARD
         8        10
#---1----|----2----|----3----|----4----|----5----|----6----|----7----|----8----|----9----|---10----|
/SUBSET/10
BALLS
#---1----|----2----|----3----|----4----|----5----|----6----|----7----|----8----|----9----|---10----|
#-  7. GEOMETRICAL SETS:
#---1----|----2----|----3----|----4----|----5----|----6----|----7----|----8----|----9----|---10----|
/PROP/TYPE20/1
Shell-16nodes
#   Isolid    Ismstr               Icpre     Icstr     Inpts      Iint                            dn
        16         0                   0         0       222         0                             0
#                q_a                 q_b                   h
                   0                  .2                   0
#             dt_min
                   0
#---1----|----2----|----3----|----4----|----5----|----6----|----7----|----8----|----9----|---10----|
/PROP/TYPE20/2
Shell-16nodes
#   Isolid    Ismstr               Icpre     Icstr     Inpts      Iint                            dn
        16         0                   0         0       222         0                             0
#                q_a                 q_b                   h
                   0                   0                   0
#             dt_min
                   0
#---1----|----2----|----3----|----4----|----5----|----6----|----7----|----8----|----9----|---10----|
#-  8. FUNCTIONS:
#---1----|----2----|----3----|----4----|----5----|----6----|----7----|----8----|----9----|---10----|
/FUNCT/1
New FUNCT 1
#                  X                   Y
                   0             -.00981                                                            
         10000000000             -.00981                                                            
#---1----|----2----|----3----|----4----|----5----|----6----|----7----|----8----|----9----|---10----|
#-  9. INITIAL VELOCITIES:
#---1----|----2----|----3----|----4----|----5----|----6----|----7----|----8----|----9----|---10----|
/INIVEL/TRA/1
Translational
#                 Vx                  Vy                  Vz   Gnod_id   Skew_id
                 1.5                   0                   0       118         0
/GRNOD/PART/118
New GRNOD 116 _parts_subsubgroup_
        17
#---1----|----2----|----3----|----4----|----5----|----6----|----7----|----8----|----9----|---10----|
#- 10. GRAVITIES:
#---1----|----2----|----3----|----4----|----5----|----6----|----7----|----8----|----9----|---10----|
/GRAV/1
z ; -9.81 ms-2
#funct_IDT       DIR   skew_ID sensor_ID  grnod_ID                      Ascale_x           Fscale_Y
         1         Z         0         0       108                             1                   1
/GRNOD/PART/108
New GRNOD 106 _parts_subsubgroup_
        11        17
#---1----|----2----|----3----|----4----|----5----|----6----|----7----|----8----|----9----|---10----|
#- 11. INTERFACES:
#---1----|----2----|----3----|----4----|----5----|----6----|----7----|----8----|----9----|---10----|
/INTER/LAGMUL/TYPE7/1
New INTER 1
#  Slav_id   Mast_id                          Multi
       152        14                                       0
# Blank card

# Blank card

#                                                        GAP
                                                          .1
#                                                                                             BUMULT
                                                                                                   0
# Blank card

# Blank card

# Blank card

/GRNOD/PART/152
New GRNOD 150 _parts_subsubgroup_
        11        17
/SURF/SEG/14
New SURF 13 _surf_segments_subsubgroup_
       385    157570    159200    159158    157470
       386    157570    157470    163247    163236
       387    157470    159158    175776    163247
       388    157570    163236    175795    159200
       389    159200    175795    175776    159158
       390    175795    163236    163247    175776
#---1----|----2----|----3----|----4----|----5----|----6----|----7----|----8----|----9----|---10----|
/INTER/LAGMUL/TYPE7/3
New INTER 3
#  Slav_id   Mast_id                          Multi
       149        20                                       0
# Blank card

# Blank card

#                                                        GAP
                                                          .1
#                                                                                             BUMULT
                                                                                                   0
# Blank card

# Blank card

# Blank card

/GRNOD/NODE/149
New GRNOD 148 _nodes_subsubgroup_
    155862    155867    155871    155916    155928    155929    155947    155948    155955    155956
    155957    155958    155960    155961    155962    155966    155972    155975    155979    155996
    156003    156017    156027    156032    156050    156051    156056    156057    156063    156075
    156097    156109    156113    156121    156123    156124    156125    156126    156128    156130
    156131    156133    156134    156136    156138    156139    156141    156142    156144    156159
    156184    156186    156191    156205    156207    156208    156222    156225    156226    156231
    156245    156263    156274    156277    156286    156288    156292    156299    156300    156303
    156304    156305    156307    156308    156311    156312    156314    156321    156324    156327
    156332    156338    156339    156347    156350    156359    156360    156371    156373    156374
    156385    156392    156399    156407    156410    156412    156433    156434
/SURF/SEG/20
New SURF 19 _surf_segments_subsubgroup_
         1    152382    152476    152425    152455
         2    152803    152382    152455    152470
         3    152476    152382    152794    152751
         4    152382    152803    152490    152794
         5    152401    152465    152847    152395
         6    152882    152401    152395    152585
         7    152922    152585    152395    152714
         8    152714    152395    152847    152739
         9    152931    152887    152398    152716
        10    152398    152928    152926    152716
        11    152887    152844    152956    152398
        12    152956    152920    152928    152398
        13    152399    152400    152929    152766
        14    152783    152947    152400    152399
        15    152483    152783    152399    152494
        16    152494    152399    152766    152642
        17    152400    152915    152916    152929
        18    152947    152948    152915    152400
        19    152584    152782    152465    152401
        20    152743    152584    152401    152882
# ... 172 like lines cut
#---1----|----2----|----3----|----4----|----5----|----6----|----7----|----8----|----9----|---10----|
#- 12. SOLID GROUPS:
#---1----|----2----|----3----|----4----|----5----|----6----|----7----|----8----|----9----|---10----|
/GRBRIC/PART/3
New GRBRIC 1 _parts_subsubgroup_
        18
#---1----|----2----|----3----|----4----|----5----|----6----|----7----|----8----|----9----|---10----|
/GRBRIC/PART/6
New GRBRIC 4 _parts_subsubgroup_
        11        17
#---1----|----2----|----3----|----4----|----5----|----6----|----7----|----8----|----9----|---10----|
/GRBRIC/PART/9
New GRBRIC 7 _parts_subsubgroup_
        11        17
#---1----|----2----|----3----|----4----|----5----|----6----|----7----|----8----|----9----|---10----|
/GRBRIC/PART/12
New GRBRIC 10 _parts_subsubgroup_
        11        17
#---1----|----2----|----3----|----4----|----5----|----6----|----7----|----8----|----9----|---10----|
/GRBRIC/PART/15
New GRBRIC 13 _parts_subsubgroup_
        11        17
#---1----|----2----|----3----|----4----|----5----|----6----|----7----|----8----|----9----|---10----|
/GRBRIC/PART/18
New GRBRIC 16 _parts_subsubgroup_
        11        17
#---1----|----2----|----3----|----4----|----5----|----6----|----7----|----8----|----9----|---10----|
/GRBRIC/PART/21
New GRBRIC 19 _parts_subsubgroup_
        11        17
#---1----|----2----|----3----|----4----|----5----|----6----|----7----|----8----|----9----|---10----|
/GRBRIC/PART/24
New GRBRIC 22 _parts_subsubgroup_
        11        17
#---1----|----2----|----3----|----4----|----5----|----6----|----7----|----8----|----9----|---10----|
/GRBRIC/PART/27
New GRBRIC 25 _parts_subsubgroup_
        11        17
#---1----|----2----|----3----|----4----|----5----|----6----|----7----|----8----|----9----|---10----|
/GRBRIC/PART/30
New GRBRIC 28 _parts_subsubgroup_
        11        17
#---1----|----2----|----3----|----4----|----5----|----6----|----7----|----8----|----9----|---10----|
/GRBRIC/PART/33
New GRBRIC 31 _parts_subsubgroup_
        11        17
#---1----|----2----|----3----|----4----|----5----|----6----|----7----|----8----|----9----|---10----|
/GRBRIC/PART/36
New GRBRIC 34 _parts_subsubgroup_
        11        17
#---1----|----2----|----3----|----4----|----5----|----6----|----7----|----8----|----9----|---10----|
/GRBRIC/PART/39
New GRBRIC 37 _parts_subsubgroup_
        11        17
#---1----|----2----|----3----|----4----|----5----|----6----|----7----|----8----|----9----|---10----|
/GRBRIC/PART/42
New GRBRIC 40 _parts_subsubgroup_
        11        17
#---1----|----2----|----3----|----4----|----5----|----6----|----7----|----8----|----9----|---10----|
/GRBRIC/PART/45
New GRBRIC 43 _parts_subsubgroup_
        11        17
#---1----|----2----|----3----|----4----|----5----|----6----|----7----|----8----|----9----|---10----|
/GRBRIC/PART/48
New GRBRIC 46 _parts_subsubgroup_
        11        17
#---1----|----2----|----3----|----4----|----5----|----6----|----7----|----8----|----9----|---10----|
/GRBRIC/PART/51
New GRBRIC 49 _parts_subsubgroup_
        17
#---1----|----2----|----3----|----4----|----5----|----6----|----7----|----8----|----9----|---10----|
/GRBRIC/PART/54
New GRBRIC 52 _parts_subsubgroup_
        11
#---1----|----2----|----3----|----4----|----5----|----6----|----7----|----8----|----9----|---10----|
/GRBRIC/PART/57
New GRBRIC 55 _parts_subsubgroup_
        11
#---1----|----2----|----3----|----4----|----5----|----6----|----7----|----8----|----9----|---10----|
/GRBRIC/PART/60
New GRBRIC 58 _parts_subsubgroup_
        18
#---1----|----2----|----3----|----4----|----5----|----6----|----7----|----8----|----9----|---10----|
/GRBRIC/PART/63
New GRBRIC 61 _parts_subsubgroup_
        17
#---1----|----2----|----3----|----4----|----5----|----6----|----7----|----8----|----9----|---10----|
/GRBRIC/PART/66
New GRBRIC 64 _parts_subsubgroup_
        18
#---1----|----2----|----3----|----4----|----5----|----6----|----7----|----8----|----9----|---10----|
/GRBRIC/PART/69
New GRBRIC 67 _parts_subsubgroup_
        11
#---1----|----2----|----3----|----4----|----5----|----6----|----7----|----8----|----9----|---10----|
/GRBRIC/PART/72
New GRBRIC 70 _parts_subsubgroup_
        17
#---1----|----2----|----3----|----4----|----5----|----6----|----7----|----8----|----9----|---10----|
/GRBRIC/PART/75
New GRBRIC 73 _parts_subsubgroup_
        17
#---1----|----2----|----3----|----4----|----5----|----6----|----7----|----8----|----9----|---10----|
/GRBRIC/PART/78
New GRBRIC 76 _parts_subsubgroup_
        11
#---1----|----2----|----3----|----4----|----5----|----6----|----7----|----8----|----9----|---10----|
/GRBRIC/PART/81
New GRBRIC 79 _parts_subsubgroup_
        18
#---1----|----2----|----3----|----4----|----5----|----6----|----7----|----8----|----9----|---10----|
/GRBRIC/PART/84
New GRBRIC 82 _parts_subsubgroup_
        17
#---1----|----2----|----3----|----4----|----5----|----6----|----7----|----8----|----9----|---10----|
/GRBRIC/PART/87
New GRBRIC 85 _parts_subsubgroup_
        11
#---1----|----2----|----3----|----4----|----5----|----6----|----7----|----8----|----9----|---10----|
#- 13. NODE GROUPS:
#---1----|----2----|----3----|----4----|----5----|----6----|----7----|----8----|----9----|---10----|
/GRNOD/PART/3
New GRNOD 1 _parts_subsubgroup_
        11        17
#---1----|----2----|----3----|----4----|----5----|----6----|----7----|----8----|----9----|---10----|
/GRNOD/PART/51
New GRNOD 49 _parts_subsubgroup_
        11
#---1----|----2----|----3----|----4----|----5----|----6----|----7----|----8----|----9----|---10----|
/GRNOD/PART/54
New GRNOD 52 _parts_subsubgroup_
        17
#---1----|----2----|----3----|----4----|----5----|----6----|----7----|----8----|----9----|---10----|
/GRNOD/NODE/58
NULL
    159158    159200    163236    163247    175561    175607    175639    175651    175776    175795
#---1----|----2----|----3----|----4----|----5----|----6----|----7----|----8----|----9----|---10----|
/GRNOD/NODE/59
NULL
    157470    157570
#---1----|----2----|----3----|----4----|----5----|----6----|----7----|----8----|----9----|---10----|
/GRNOD/NODE/67
NULL
    157470    157570
#---1----|----2----|----3----|----4----|----5----|----6----|----7----|----8----|----9----|---10----|
/GRNOD/NODE/76
NULL
    159158    159200    175607    175639    175776    175795
#---1----|----2----|----3----|----4----|----5----|----6----|----7----|----8----|----9----|---10----|
/GRNOD/NODE/92
NULL
    159158    159200
#---1----|----2----|----3----|----4----|----5----|----6----|----7----|----8----|----9----|---10----|
/GRNOD/NODE/93
NULL
    159158    159200
#---1----|----2----|----3----|----4----|----5----|----6----|----7----|----8----|----9----|---10----|
/GRNOD/NODE/94
NULL
    159073    159079
#---1----|----2----|----3----|----4----|----5----|----6----|----7----|----8----|----9----|---10----|
/GRNOD/NODE/97
NULL
    157470    157570    159073    159079    159158    159200
#---1----|----2----|----3----|----4----|----5----|----6----|----7----|----8----|----9----|---10----|
/GRNOD/NODE/103
NULL
    157470    157570    163107    163236    163247    163256    175561    175651    175776    175795
#---1----|----2----|----3----|----4----|----5----|----6----|----7----|----8----|----9----|---10----|
/GRNOD/NODE/109
NULL
    163236    163247
#---1----|----2----|----3----|----4----|----5----|----6----|----7----|----8----|----9----|---10----|
/GRNOD/NODE/110
NULL
    157470    157570
#---1----|----2----|----3----|----4----|----5----|----6----|----7----|----8----|----9----|---10----|
/GRNOD/NODE/111
NULL
    159158    159200
#---1----|----2----|----3----|----4----|----5----|----6----|----7----|----8----|----9----|---10----|
/GRNOD/NODE/112
NULL
    175776    175795
#---1----|----2----|----3----|----4----|----5----|----6----|----7----|----8----|----9----|---10----|
/GRNOD/NODE/113
NULL
    157470    157570    159073    159079    159158    159200    163107    163236    163247    163256
    175561    175607    175639    175651    175776    175795
#---1----|----2----|----3----|----4----|----5----|----6----|----7----|----8----|----9----|---10----|
/GRNOD/PART/121
New GRNOD 119 _parts_subsubgroup_
        11        17
#---1----|----2----|----3----|----4----|----5----|----6----|----7----|----8----|----9----|---10----|
/GRNOD/PART/124
New GRNOD 122 _parts_subsubgroup_
        11
#---1----|----2----|----3----|----4----|----5----|----6----|----7----|----8----|----9----|---10----|
/GRNOD/PART/127
New GRNOD 125 _parts_subsubgroup_
        17
#---1----|----2----|----3----|----4----|----5----|----6----|----7----|----8----|----9----|---10----|
/GRNOD/PART/130
New GRNOD 128 _parts_subsubgroup_
        11        17
#---1----|----2----|----3----|----4----|----5----|----6----|----7----|----8----|----9----|---10----|
/GRNOD/PART/133
New GRNOD 131 _parts_subsubgroup_
        11
#---1----|----2----|----3----|----4----|----5----|----6----|----7----|----8----|----9----|---10----|
/GRNOD/PART/136
New GRNOD 134 _parts_subsubgroup_
        17
#---1----|----2----|----3----|----4----|----5----|----6----|----7----|----8----|----9----|---10----|
/GRNOD/NODE/147
New GRNOD 146 _nodes_subsubgroup_
    152395    152399    152400    152401    152412    152413    152415    152426    152427    152436
    152439    152447    152448    152454    152459    152462    152465    152472    152474    152475
    152478    152479    152481    152482    152483    152486    152487    152494    152504    152506
    152515    152518    152529    152547    152561    152566    152567    152570    152584    152585
    152587    152600    152601    152622    152624    152627    152633    152635    152642    152649
    152655    152659    152660    152680    152692    152714    152739    152743    152746    152759
    152765    152766    152775    152778    152782    152783    152788    152800    152805    152819
    152832    152847    152849    152850    152852    152853    152855    152857    152858    152860
    152861    152863    152865    152866    152867    152868    152870    152882    152892    152901
    152913    152914    152915    152916    152922    152929    152947    152948
#---1----|----2----|----3----|----4----|----5----|----6----|----7----|----8----|----9----|---10----|
#- 14. SURFACES:
#---1----|----2----|----3----|----4----|----5----|----6----|----7----|----8----|----9----|---10----|
/SURF/SEG/1
New SURF 1
       387    157470    159158    175776    163247
       388    157570    163236    175795    159200
#---1----|----2----|----3----|----4----|----5----|----6----|----7----|----8----|----9----|---10----|
/SURF/SEG/4
New SURF 4
         1    152382    152476    152425    152455
         2    152803    152382    152455    152470
         3    152476    152382    152794    152751
         4    152382    152803    152490    152794
         5    152401    152465    152847    152395
         6    152882    152401    152395    152585
         7    152922    152585    152395    152714
         8    152714    152395    152847    152739
         9    152931    152887    152398    152716
        10    152398    152928    152926    152716
        11    152887    152844    152956    152398
        12    152956    152920    152928    152398
        13    152399    152400    152929    152766
        14    152783    152947    152400    152399
        15    152483    152783    152399    152494
        16    152494    152399    152766    152642
        17    152400    152915    152916    152929
        18    152947    152948    152915    152400
        19    152584    152782    152465    152401
        20    152743    152584    152401    152882
# ... 172 like lines cut
#---1----|----2----|----3----|----4----|----5----|----6----|----7----|----8----|----9----|---10----|
/SURF/SEG/5
New SURF 5
       193    156253    155940    155859    156064
       194    155940    156325    156438    155859
       195    156064    155859    156058    155984
       196    155859    156438    156029    156058
       197    156057    155955    155975    155862
       198    155862    155975    156027    156263
       199    156324    156057    155862    156142
       200    156142    155862    156263    156128
       201    156310    156012    155876    155866
       202    155866    155876    156068    156067
       203    156438    155866    156067    156029
       204    156325    156310    155866    156438
       205    156312    155929    156050    155867
       206    156410    155867    156172    156032
       207    155867    156050    156051    156172
       208    156311    156312    155867    156410
       209    156186    155947    156434    155871
       210    155871    156222    156109    156186
       211    156225    156226    156222    155871
       212    155871    156434    156433    156225
# ... 172 like lines cut
#---1----|----2----|----3----|----4----|----5----|----6----|----7----|----8----|----9----|---10----|
/SURF/SEG/12
New SURF 12
       385    157570    159200    159158    157470
       386    157570    157470    163247    163236
       387    157470    159158    175776    163247
       388    157570    163236    175795    159200
       389    159200    175795    175776    159158
       390    175795    163236    163247    175776
#---1----|----2----|----3----|----4----|----5----|----6----|----7----|----8----|----9----|---10----|
/SURF/SEG/15
New SURF 15
         1    152382    152476    152425    152455
         2    152803    152382    152455    152470
         3    152476    152382    152794    152751
         4    152382    152803    152490    152794
         5    152401    152465    152847    152395
         6    152882    152401    152395    152585
         7    152922    152585    152395    152714
         8    152714    152395    152847    152739
         9    152931    152887    152398    152716
        10    152398    152928    152926    152716
        11    152887    152844    152956    152398
        12    152956    152920    152928    152398
        13    152399    152400    152929    152766
        14    152783    152947    152400    152399
        15    152483    152783    152399    152494
        16    152494    152399    152766    152642
        17    152400    152915    152916    152929
        18    152947    152948    152915    152400
        19    152584    152782    152465    152401
        20    152743    152584    152401    152882
# ... 172 like lines cut
#---1----|----2----|----3----|----4----|----5----|----6----|----7----|----8----|----9----|---10----|
/SURF/SEG/16
New SURF 16
       193    156253    155940    155859    156064
       194    155940    156325    156438    155859
       195    156064    155859    156058    155984
       196    155859    156438    156029    156058
       197    156057    155955    155975    155862
       198    155862    155975    156027    156263
       199    156324    156057    155862    156142
       200    156142    155862    156263    156128
       201    156310    156012    155876    155866
       202    155866    155876    156068    156067
       203    156438    155866    156067    156029
       204    156325    156310    155866    156438
       205    156312    155929    156050    155867
       206    156410    155867    156172    156032
       207    155867    156050    156051    156172
       208    156311    156312    155867    156410
       209    156186    155947    156434    155871
       210    155871    156222    156109    156186
       211    156225    156226    156222    155871
       212    155871    156434    156433    156225
# ... 172 like lines cut
#---1----|----2----|----3----|----4----|----5----|----6----|----7----|----8----|----9----|---10----|
/SURF/SEG/18
New SURF 17 _surf_segments_subsubgroup_
       193    156253    155940    155859    156064
       194    155940    156325    156438    155859
       195    156064    155859    156058    155984
       196    155859    156438    156029    156058
       197    156057    155955    155975    155862
       198    155862    155975    156027    156263
       199    156324    156057    155862    156142
       200    156142    155862    156263    156128
       201    156310    156012    155876    155866
       202    155866    155876    156068    156067
       203    156438    155866    156067    156029
       204    156325    156310    155866    156438
       205    156312    155929    156050    155867
       206    156410    155867    156172    156032
       207    155867    156050    156051    156172
       208    156311    156312    155867    156410
       209    156186    155947    156434    155871
       210    155871    156222    156109    156186
       211    156225    156226    156222    155871
       212    155871    156434    156433    156225
# ... 172 like lines cut
#---1----|----2----|----3----|----4----|----5----|----6----|----7----|----8----|----9----|---10----|
#- 15. TIME HISTORIES:
#---1----|----2----|----3----|----4----|----5----|----6----|----7----|----8----|----9----|---10----|
/TH/PART/1
parts
#     var1      var2      var3      var4      var5      var6      var7      var8      var9     var10
DEF       HE        IE        KE        KERB      RKE       RKERB     XCG       XMOM      XXMOM     
YCG       YMOM      YYMOM     ZCG       ZMOM      ZZMOM     
#     Obj1      Obj2      Obj3      Obj4      Obj5      Obj6      Obj7      Obj8      Obj9     Obj10
        11        17        18
#---1----|----2----|----3----|----4----|----5----|----6----|----7----|----8----|----9----|---10----|
/END
#---1----|----2----|----3----|----4----|----5----|----6----|----7----|----8----|----9----|---10----|
