#RADIOSS STARTER
/BEGIN
IMPLRING
/NODE
         1        0.0000000000        0.0000000000        0.0000000000
         2        0.0000000000        0.0000000000      100.0000000000
         3        0.0000000000        0.0000000000      200.0000000000
         4        0.0000000000        0.0000000000      300.0000000000
         5        0.0000000000        0.0000000000      400.0000000000
         6      300.0000000000      300.0000000000        0.0000000000
         7       75.0000000000        0.0000000000      300.0000000000
         8       75.0000000000        0.0000000000      400.0000000000
         9      150.0000000000        0.0000000000      300.0000000000
        10      150.0000000000        0.0000000000      400.0000000000
        11      200.0000000000        0.0000000000        0.0000000000
        12      200.0000000000        0.0000000000      400.0000000000
/BEAM/1
         1         1         2         6
         2         2         3         6
         3         3         4         6
         4         4         5         6
/SH3N/2
       101         4         7         8
       102         4         8         5
       103         7         9        10
       104         7        10         8
/TRUSS/3
       201        11         3
/SPRING/4
       301        12         5
/PART/1
mast beams
         1         1
/PART/2
antenna panel
         2         1
/PART/3
diagonal brace
         3         1
/PART/4
guy spring
         4         1
/MAT/LAW1/1
steel
   7.8e-6
     210.0       0.3
/PROP/BEAM/1
mast 10x10
     100.0    833.33    833.33    1405.8
/PROP/SHELL/2
panel
         1         0         0         0
      0.01      0.01      0.01         0         0
         3         0       2.0
/PROP/TRUSS/3
brace
      25.0
/PROP/SPRING/4
guy
    0.01    0.02       0.0
/GRNOD/NODE/1
grounds
1 11 12
/GRNOD/NODE/2
mast tip
5
/BCS/1
clamp grounds
       111       111         0         1
/FUNCT/1
step on at t=0
       0.0       1.0
    1000.0       1.0
/CLOAD/1
side kick
         1         X         2       0.05
/END
