#RADIOSS STARTER
#--------------------------------------------------------------------------------------------------|
#- RADIOSS DECK WRITTEN BY HyperCrash
#HyperCrash 2021 (64 bits) 
#Wed Feb 24 12:59:13 2021
#-
#-
#- DATE	Wed Feb 24 12:59:13 2021
#--------------------------------------------------------------------------------------------------|
#---1----|----2----|----3----|----4----|----5----|----6----|----7----|----8----|----9----|---10----|
/BEGIN
1BRICK_COMPRESSION                                                              
      2020         0
                  kg                   m                   s
                  kg                   m                   s
#---1----|----2----|----3----|----4----|----5----|----6----|----7----|----8----|----9----|---10----|
#-  1. CONTROL CARDS:
#---1----|----2----|----3----|----4----|----5----|----6----|----7----|----8----|----9----|---10----|
/TITLE

#---1----|----2----|----3----|----4----|----5----|----6----|----7----|----8----|----9----|---10----|
/ANALY
#    N2D3D             IPARITH      ISUB
         0                   0         0
#---1----|----2----|----3----|----4----|----5----|----6----|----7----|----8----|----9----|---10----|
/DEF_SOLID
#  I_SOLID    ISMSTR             ISTRAIN   ITETRA4  ITETRA10      IMAS    IFRAME
         0         0                   0         0         0         0         0
#---1----|----2----|----3----|----4----|----5----|----6----|----7----|----8----|----9----|---10----|
/IOFLAG
#     IPRI               IGTYP     IOUTP    IOUTYY   IROOTYY     IDROT
         0                   0         0         0         0         0
#---1----|----2----|----3----|----4----|----5----|----6----|----7----|----8----|----9----|---10----|
/SPMD
#   DOMDEC     Nproc              Dkword             Nthread
         0         0                   0                   1
#---1----|----2----|----3----|----4----|----5----|----6----|----7----|----8----|----9----|---10----|
#-  2. MATERIALS:
#---1----|----2----|----3----|----4----|----5----|----6----|----7----|----8----|----9----|---10----|
/MAT/HYD_VISC/1
PolynomialEOS-RelativePressure-AbsoluteEnergy
#              RHO_I               RHO_0
               1.204                   0
#                Knu                Pmin
           1.5256E-5                   0
/ALE/MAT/1
#     Modif. factor.
                   0
/EOS/POLYNOMIAL/1
Conversion of Mat Law 6 in RADIOSS 2018 or greater
#                 C0                  C1                  C2                  C3
              100000              100000                   0                   0
#                 C4                  C5                  E0                 Psh               RHO_0
                  .4                  .4                   0                   0               1.204
#---1----|----2----|----3----|----4----|----5----|----6----|----7----|----8----|----9----|---10----|
#-  3. NODES:
#---1----|----2----|----3----|----4----|----5----|----6----|----7----|----8----|----9----|---10----|
/NODE
         1                   0                   0                   0
         2                   0                  10                   0
         3                  10                  10                   0
         4                  10                   0                   0
         5                   0                  10                  10
         6                  10                  10                  10
         7                  10                   0                  10
         8                   0                   0                  10
#---1----|----2----|----3----|----4----|----5----|----6----|----7----|----8----|----9----|---10----|
#-  4. BOUNDARY CONDITIONS:
#---1----|----2----|----3----|----4----|----5----|----6----|----7----|----8----|----9----|---10----|
/BCS/1
lagrangiens
#  Tra rot   skew_ID  grnod_ID
   000 000         0         1
/GRNOD/NODE/1
brick_nodes
         1         2         3         4         5         6         7         8
#---1----|----2----|----3----|----4----|----5----|----6----|----7----|----8----|----9----|---10----|
/ALE/BCS/2
lagrangiens
#   trarot   Skew_id   Gnod_id
   000 111         0         1
#---1----|----2----|----3----|----4----|----5----|----6----|----7----|----8----|----9----|---10----|
#-  5. PARTS:
#---1----|----2----|----3----|----4----|----5----|----6----|----7----|----8----|----9----|---10----|
/PART/1
BRICK
         1         1         0
#---1----|----2----|----3----|----4----|----5----|----6----|----7----|----8----|----9----|---10----|
# BRICK elements of /PART/1/BRICK:
#---1----|----2----|----3----|----4----|----5----|----6----|----7----|----8----|----9----|---10----|
/BRICK/1
         2         2         1         4         3         5         8         7         6
#---1----|----2----|----3----|----4----|----5----|----6----|----7----|----8----|----9----|---10----|
#-  6. SUBSETS:
#---1----|----2----|----3----|----4----|----5----|----6----|----7----|----8----|----9----|---10----|
/SUBSET/4
VOID_SPRING
#---1----|----2----|----3----|----4----|----5----|----6----|----7----|----8----|----9----|---10----|
#-  7. GEOMETRICAL SETS:
#---1----|----2----|----3----|----4----|----5----|----6----|----7----|----8----|----9----|---10----|
/PROP/SOLID/1
prop_fluid
#   Isolid    Ismstr               Icpre  Itetra10     Inpts   Itetra4    Iframe                  dn
         0         0                   0         0         0         0         0                   0
#                q_a                 q_b                   h            LAMBDA_V                MU_V
                   0                   0                   0                   0                   0
#             dt_min   istrain      IHKT
                   0         0         0
#---1----|----2----|----3----|----4----|----5----|----6----|----7----|----8----|----9----|---10----|
#-  8. FUNCTIONS:
#---1----|----2----|----3----|----4----|----5----|----6----|----7----|----8----|----9----|---10----|
/FUNCT/1
dilatation_compression
#                  X                   Y
                   0                   0
                 100                  10
                 200                   0
                 225                -2.5
#---1----|----2----|----3----|----4----|----5----|----6----|----7----|----8----|----9----|---10----|
/FUNCT/10
compression_dilatation
#                  X                   Y
                   0                   0
                  25                -2.5
                  50                   0
                 150                  10
#---1----|----2----|----3----|----4----|----5----|----6----|----7----|----8----|----9----|---10----|
#-  9. IMPOSED DISPLACEMENTS:
#---1----|----2----|----3----|----4----|----5----|----6----|----7----|----8----|----9----|---10----|
/IMPDISP/2
FaceX+
#   Ifunct       DIR     Iskew   Isensor   Gnod_id     Frame     Icoor
         1         X         0         0         2         0         0
#            Scale_x             Scale_y              Tstart               Tstop
                   0                   0                   0                   0
/GRNOD/NODE/2
IMPDISP_group_2_of_NODE
         3         4         6         7
#---1----|----2----|----3----|----4----|----5----|----6----|----7----|----8----|----9----|---10----|
/IMPDISP/3
FaceX-
#   Ifunct       DIR     Iskew   Isensor   Gnod_id     Frame     Icoor
         1         X         0         0         3         0         0
#            Scale_x             Scale_y              Tstart               Tstop
                   0                  -1                   0                   0
/GRNOD/NODE/3
IMPDISP_group_3_of_NODE
         1         2         5         8
#---1----|----2----|----3----|----4----|----5----|----6----|----7----|----8----|----9----|---10----|
/IMPDISP/4
FaceZ+
#   Ifunct       DIR     Iskew   Isensor   Gnod_id     Frame     Icoor
         1         Z         0         0         4         0         0
#            Scale_x             Scale_y              Tstart               Tstop
                   0                   1                   0                   0
/GRNOD/NODE/4
IMPDISP_group_4_of_NODE
         5         6         7         8
#---1----|----2----|----3----|----4----|----5----|----6----|----7----|----8----|----9----|---10----|
/IMPDISP/5
FaceZ-
#   Ifunct       DIR     Iskew   Isensor   Gnod_id     Frame     Icoor
         1         Z         0         0         5         0         0
#            Scale_x             Scale_y              Tstart               Tstop
                   0                  -1                   0                   0
/GRNOD/NODE/5
IMPDISP_group_5_of_NODE
         1         2         3         4
#---1----|----2----|----3----|----4----|----5----|----6----|----7----|----8----|----9----|---10----|
/IMPDISP/6
FaceY+
#   Ifunct       DIR     Iskew   Isensor   Gnod_id     Frame     Icoor
         1         Y         0         0         6         0         0
#            Scale_x             Scale_y              Tstart               Tstop
                   0                   1                   0                   0
/GRNOD/NODE/6
IMPDISP_group_6_of_NODE
         2         3         5         6
#---1----|----2----|----3----|----4----|----5----|----6----|----7----|----8----|----9----|---10----|
/IMPDISP/7
FaceY-
#   Ifunct       DIR     Iskew   Isensor   Gnod_id     Frame     Icoor
         1         Y         0         0         7         0         0
#            Scale_x             Scale_y              Tstart               Tstop
                   0                  -1                   0                   0
/GRNOD/NODE/7
IMPDISP_group_7_of_NODE
         1         4         7         8
#---1----|----2----|----3----|----4----|----5----|----6----|----7----|----8----|----9----|---10----|
#- 10. TIME HISTORIES:
#---1----|----2----|----3----|----4----|----5----|----6----|----7----|----8----|----9----|---10----|
/TH/BRIC/1
brick
#     var1      var2      var3      var4      var5      var6      var7      var8      var9     var10
DEF       
#     Elid                                                      Elname
         2          brick_2                                           
#---1----|----2----|----3----|----4----|----5----|----6----|----7----|----8----|----9----|---10----|
/TH/NODE/3
REF_NODES
#     var1      var2      var3      var4      var5      var6      var7      var8      var9     var10
DEF       XYZ       
#    NODid     Iskew                                           NODname
         1         0REF_NODES_1                                                                     
         4         0REF_NODES_4                                                                     
#---1----|----2----|----3----|----4----|----5----|----6----|----7----|----8----|----9----|---10----|
/END
#---1----|----2----|----3----|----4----|----5----|----6----|----7----|----8----|----9----|---10----|
