# RADIOSS
/RUN/tensile_TABULATED_TETRA4_3/1/
40.0000000000000    
/STOP
0.000000000000000    0.000000000000000    0.000000000000000    1          1          0         
/MON/ON
/PRINT/-500/55        
/VERS/2023
/DT/NODA/CST/0
0.900000000000000    0.000000000000000    0.000000000000000   
/TFILE/0         
0.010000000000000   
/H3D/DT
0.000000000000000    0.500000000000000   
/H3D/NODA/DMASS
/H3D/NODA/VEL
/H3D/SOLID/EPSP
/H3D/SOLID/TENS/STRESS/IR=ALL/IS=ALL/IT=ALL
/END/ENGINE
#RADIOSS STARTER
##========================================================================================
##
## Radioss Input Deck Generated by HyperMesh Version  : 2023.1.0.21
## Generated using HyperMesh-Radioss Template Version : 2023.1.0.21-40550
## Date: 03-21-2024   Time: 16:22:23
##
##========================================================================================
##
##--------------------------------------------------------------------------------------------------
#Runname                                                                        
#Runname                                                                        
#Runname                                                                        
#Runname                                                                        
#Runname                                                                        
##
/BEGIN
#Runname                                                                        
tensile_TABULATED_TETRA4_3                                                      
#   Invers      Irun
      2023         0
#    Input_mass_unit   Input_length_unit     Input_time_unit
                  kg                  mm                  ms
#     Work_mass_unit    Work_length_unit      Work_time_unit
                  kg                  mm                  ms
##
#---1----|----2----|----3----|----4----|----5----|----6----|----7----|----8----|----9----|---10----|
/NODE
#  node_ID                  Xc                  Yc                  Zc
        13               100.0                 0.0                 0.0
        14               100.0                 2.0                 0.0
        15               100.0                 4.0                 0.0
        16               100.0               5.975                 0.0
        17               97.99                 6.0                 0.0
        18               95.97                 6.0                 0.0
        19               93.96                 6.0                 0.0
        20               91.94                 6.0                 0.0
        21               89.93                 6.0                 0.0
        22               87.91                 6.0                 0.0
        23                85.9                 6.0                 0.0
        24               83.88                 6.0                 0.0
        25               81.87                 6.0                 0.0
        26               79.86                 6.0                 0.0
        27               77.84                 6.0                 0.0
        28               75.83                 6.0                 0.0
        29               73.81                 6.0                 0.0
        30                71.8                 6.0                 0.0
        31               69.78                 6.0                 0.0
        32               67.77                 6.0                 0.0
# ... 1827 like lines cut
#---1----|----2----|----3----|----4----|----5----|----6----|----7----|----8----|----9----|---10----|
/TETRA4/3
# tetra_ID  node_ID1  node_ID2  node_ID3  node_ID4
      1618       991        66       122        65
      1619       992       994       991       122
      1620       992       991        66       122
      1621        67       992       994       993
      1622       122        67        66       992
      1623       122       994        67       992
      1624       995        72       123        71
      1625       996       998       995       123
      1626       996       995        72       123
      1627        73       996       998       997
      1628       123        73        72       996
      1629       123       998        73       996
      1630       999        16       124        15
      1631      1000      1002       999       124
      1632      1000       999        16       124
      1633        17      1000      1002      1001
      1634       124        17        16      1000
      1635       124      1002        17      1000
      1636      1003        13       125       121
      1637      1004      1006      1003       125
# ... 4856 like lines cut
#---1----|----2----|----3----|----4----|----5----|----6----|----7----|----8----|----9----|---10----|
##HWCOLOR components 3 3
/PART/3
#part_title                                                                                         
Tensile_coupon                                                                                      
#  prop_ID    mat_ID                         Thick
         1         1                              
#---1----|----2----|----3----|----4----|----5----|----6----|----7----|----8----|----9----|---10----|
##HWCOLOR materials 1 43
/MAT/PLAS_TAB/1
MAT_TABULATED                                                                                       
#        Init. dens.
7.80000000000000E-06
#                  E                  Nu           Eps_p_max               Eps_t               Eps_m
               221.0                 0.3                                                            
#  N_funct  F_smooth              C_hard               F_cut               Eps_f                  VP
         1                                                                                          
#  fct_IDp              Fscale   Fct_IDE                EInf                  CE
                                                                                
# func_ID1  func_ID2  func_ID3  func_ID4  func_ID5
         2
#           Fscale_1            Fscale_2            Fscale_3            Fscale_4            Fscale_5
1.00000000000000E-03
#          Eps_dot_1           Eps_dot_2           Eps_dot_3           Eps_dot_4           Eps_dot_5
                 0.0
#---1----|----2----|----3----|----4----|----5----|----6----|----7----|----8----|----9----|---10----|
##HWCOLOR properties 1 5
/PROP/SOLID/1
sheet_1.7                                                                                           
#   Isolid    Ismstr      Iale     Icpre  Itetra10     Inpts   Itetra4    Iframe                  Dn
                                                                     3                              
#                 qa                  qb                   h              Lambda                  Mu
                                                                                                    
#         deltaT_min            Vdef_min            Vdef_max             ASP_max             COL_min
                                                                                                    
#---1----|----2----|----3----|----4----|----5----|----6----|----7----|----8----|----9----|---10----|
##HMMOVE elements 1 4
/RBODY/1
#rbody_title                                                                                        
                                                                                                    
#  node_ID   sens_ID   Skew_ID    Ispher                Mass   grnd_ID     Ikrem      ICoG   surf_ID
       990         0                                                 1                              
#               J_XX                J_YY                J_ZZ
                                                            
#               J_XY                J_YZ                J_XZ
                                                            
#  Ioptoff   Iexpams     Ifail
                              
/GRNOD/NODE/1
#title                                                                                              
rigid1nodeset                                                                                       
# item_ID1  item_ID2  item_ID3  item_ID4  item_ID5  item_ID6  item_ID7  item_ID8  item_ID9 item_ID10
       574       575       576       577       578       579       580       581       582       583
       584       585       586       587       588       589       590       591       592       636
       637       640       641       642       643       684       685       686       687       732
       733       734       735       736       741       742       743       744       745       746
       747       748       749       750       751       768       769       770       771       830
       831       832       833       834       835       836       837       838       839       840
       841       842       843       846       847       848       849       890       891       892
       893       938       939       940       941       942       947       948       949       950
       951       952       953       954       955       956       957       974       975       976
       977       990      1454      1455      1456      1457      1458      1459      1460      1461
      1466      1467      1468      1469      1470      1471      1472      1473      1554      1555
      1556      1557      1558      1559      1560      1561      1650      1651      1652      1653
      1654      1655      1656      1657      1658      1659      1664      1665      1666      1667
      1668      1669      1670      1671      1672      1673      1674      1693      1694      1695
      1696      1707      1708      1709      1710      1711      1712      1716      1717      1718
      1719      1720      1721      1722      1803      1804      1805      1806      1853      1854
      1855      1856      1857      1858      1859      1860      1861      1862      1867      1868
      1869      1870      1871      1872      1873      1874      1875      1876      1877      1896
      1897      1898      1899
#---1----|----2----|----3----|----4----|----5----|----6----|----7----|----8----|----9----|---10----|
##HMNAME LOADCOLS          1Bcs                                                                     
##HWCOLOR loadcollectors 1 8
/BCS/1
constraint1                                                                                         
#  Tra rot   skew_ID  grnod_ID
   111 111         0         2
#---1----|----2----|----3----|----4----|----5----|----6----|----7----|----8----|----9----|---10----|
##HMNAME LOADCOLS          2Bcs.1                                                                   
##HWCOLOR loadcollectors 2 20
/BCS/2
constraint2                                                                                         
#  Tra rot   skew_ID  grnod_ID
   011 111         0         3
#---1----|----2----|----3----|----4----|----5----|----6----|----7----|----8----|----9----|---10----|
##HMNAME LOADCOLS          3Impvel                                                                  
##HWCOLOR loadcollectors 3 24
/IMPVEL/3
velocity                                                                                            
#funct_IDT       Dir   skew_ID sensor_ID  grnod_ID  frame_ID     Icoor
         1         X         0         0         4                   0
#            Scale_x             Scale_y              Tstart               Tstop
                                                         0.0                    
#---1----|----2----|----3----|----4----|----5----|----6----|----7----|----8----|----9----|---10----|
##HWCOLOR curves 1 4
/FUNCT/1
#title                                                                                              
curve1                                                                                              
#                  X                   Y
                 0.0                 1.0
1.00000000000000E+30                 0.0
#---1----|----2----|----3----|----4----|----5----|----6----|----7----|----8----|----9----|---10----|
##HWCOLOR curves 2 59
/FUNCT/2
#title                                                                                              
curve2                                                                                              
#                  X                   Y
                 0.0         389.6742905
         0.003269061         400.2301329
         0.006930112         409.5892943
         0.010444667         418.2536246
         0.011846377         422.4618685
         0.012926577         426.8273629
         0.013648366          433.649405
         0.015225465         443.8400214
         0.018589302          452.254124
          0.02187438         469.6410427
         0.025339483          483.105617
         0.028791504         494.6842777
         0.032231428         505.9576521
         0.035658606         515.5831376
         0.039073858         524.8864594
         0.042476834         533.0550205
         0.045868261         541.2669201
         0.049247692         548.5450599
         0.052615533         555.4786773
         0.055971597         561.5720754
# ... 46 like lines cut
#---1----|----2----|----3----|----4----|----5----|----6----|----7----|----8----|----9----|---10----|
/GRNOD/NODE/2
#title                                                                                              
set1                                                                                                
# item_ID1  item_ID2  item_ID3  item_ID4  item_ID5  item_ID6  item_ID7  item_ID8  item_ID9 item_ID10
        60        61        62        63        64        65        66        67        68        69
        70        71        72        73        74        75        76        77        78       122
       123       126       127       128       129       170       171       172       173       218
       219       220       221       222       227       228       229       230       231       232
       233       234       235       236       237       254       255       256       257       317
       318       319       320       321       322       323       324       325       326       327
       328       379       380       383       384       385       386       427       428       429
       430       475       476       477       478       479       484       485       486       487
       488       489       490       491       492       493       494       511       512       513
       514       991       992       993       994       995       996       997       998      1007
      1008      1009      1010      1011      1012      1013      1014      1095      1096      1097
      1098      1099      1100      1101      1102      1191      1192      1193      1194      1195
      1196      1197      1198      1199      1200      1205      1206      1207      1208      1209
      1210      1211      1212      1213      1214      1215      1234      1235      1236      1237
      1248      1249      1250      1251      1252      1253      1260      1261      1262      1263
      1264      1265      1266      1347      1348      1349      1350      1397      1398      1399
      1400      1401      1402      1403      1404      1405      1406      1411      1412      1413
      1414      1415      1416      1417      1418      1419      1420      1421      1440      1441
      1442      1443
#---1----|----2----|----3----|----4----|----5----|----6----|----7----|----8----|----9----|---10----|
/GRNOD/NODE/3
#title                                                                                              
set2                                                                                                
# item_ID1  item_ID2  item_ID3  item_ID4  item_ID5  item_ID6  item_ID7  item_ID8  item_ID9 item_ID10
       990      1555
#---1----|----2----|----3----|----4----|----5----|----6----|----7----|----8----|----9----|---10----|
/GRNOD/NODE/4
#title                                                                                              
set3                                                                                                
# item_ID1  item_ID2  item_ID3  item_ID4  item_ID5  item_ID6  item_ID7  item_ID8  item_ID9 item_ID10
       990      1555
#---1----|----2----|----3----|----4----|----5----|----6----|----7----|----8----|----9----|---10----|
/TH/RBODY/1
#thgroup_name
TH_BODY                                                                                             
#  var_ID1   var_ID2   var_ID3   var_ID4   var_ID5   var_ID6   var_ID7   var_ID8   var_ID9  var_ID10
DEF       
#  Obj_ID1   Obj_ID2   Obj_ID3   Obj_ID4   Obj_ID5   Obj_ID6   Obj_ID7   Obj_ID8   Obj_ID9  Obj_ID10
         1
#---1----|----2----|----3----|----4----|----5----|----6----|----7----|----8----|----9----|---10----|
/TH/BRIC/3
#thgroup_name
TH/BRIC                                                                                             
#  var_ID1   var_ID2   var_ID3   var_ID4   var_ID5   var_ID6   var_ID7   var_ID8   var_ID9  var_ID10
DEF       
#  elem_ID                                                   elem_name
      1630                                                                                          
      1631                                                                                          
      1632                                                                                          
      1633                                                                                          
      1634                                                                                          
      1636                                                                                          
      1637                                                                                          
      1639                                                                                          
      1640                                                                                          
      1678                                                                                          
      1679                                                                                          
      1681                                                                                          
      1682                                                                                          
      1683                                                                                          
      2846                                                                                          
      2847                                                                                          
      2848                                                                                          
      2849                                                                                          
      2850                                                                                          
      2851                                                                                          
# ... 45 like lines cut
#---1----|----2----|----3----|----4----|----5----|----6----|----7----|----8----|----9----|---10----|
/TH/NODE/2
#thgroup_name
TH_Measuring_Nodes                                                                                  
#  var_ID1   var_ID2   var_ID3   var_ID4   var_ID5   var_ID6   var_ID7   var_ID8   var_ID9  var_ID10
DEF       
#  node_ID   skew_ID                                         node_name
       102         0                                                                                
       616         0                                                                                
##--------------------------------------------------------------------------------------------------
## End Of Radioss Block Deck
##--------------------------------------------------------------------------------------------------
/END
##<?xml version="1.0" encoding="utf-8"?>
##<Altair_XML_Export>
##    <UDM xmlns:SOAP-ENV="http://schemas.xmlsoap.org/soap/envelope/" xmlns:SOAP-ENC="http://schemas.xmlsoap.org/soap/encoding/" xmlns:xsi="http://www.w3.org/2001/XMLSchema-instance" xmlns:xsd="http://www.w3.org/2001/XMLSchema" xmlns:udmcfg="http://schemas.altair.com/AltairUDMRuntimeConfig" xmlns:udmxml="http://schemas.altair.com/AltairUDM" xmlns:importrules="http://schemas.altair.com/hsm/importru
##        <udmxml:EntityCollection xsi:type="udmxml:EntityCollectionCType">
##            <udmxml:Entity xsi:type="udmxml:AssemblyDMCType" displayName="HW_Assembly" contentDefinitionType="UDMAssemblyDM" id="bd7df07facd1fe4ba631cd1673af5010:0">
##                <udmxml:Children>
##                    <udmxml:Child xsi:type="udmxml:ChildCType" refId="f79a337db4fb424c8e8c3ec47c24cea6:0" timestamp="1711034501725691" childFlags="0" groupName="boas" contentDefinitionType="UDMBOA"/>
##                </udmxml:Children>
##            </udmxml:Entity>
##            <udmxml:Entity xsi:type="udmxml:BOACType" displayName="HW_BOA" contentDefinitionType="UDMBOA" id="f79a337db4fb424c8e8c3ec47c24cea6:0">
##                <udmxml:Children>
##                    <udmxml:Child xsi:type="udmxml:ChildCType" refId="017dae5be1386841b700e6a5315153ed:0" timestamp="1711034501725691" childFlags="0" groupName="parts" contentDefinitionType="UDMPartProtoOcc">
##                        <AdditionalIdList xsi:type="udmxml:AdditionalIdCType" xmlns="http://schemas.altair.com/AltairUDM" keyValue="Model" keyName="displayname" contentDefinitionType="UDMPartProtoOcc"/>
##                    </udmxml:Child>
##                </udmxml:Children>
##            </udmxml:Entity>
##            <udmxml:Entity xsi:type="udmxml:PartCType" displayName="Tensile_coupon.p" contentDefinitionType="UDMPartProto" id="e06344dd7e8e7e4ba10030527439c52d:0">
##                <udmxml:Attributes>
##                    <udmxml:Attribute xsi:type="udmxml:AttributeCType" valueutf8="-" type="string" name="studyrevision" displayName="STUDY_REVISION">-</udmxml:Attribute>
##                    <udmxml:Attribute xsi:type="udmxml:AttributeCType" valueutf8="Tensile_coupon" type="string" name="HW_UID">Tensile_coupon</udmxml:Attribute>
##                    <udmxml:Attribute xsi:type="udmxml:AttributeCType" valueutf8="-" type="string" name="PLMXML_PRODUCTREVISION_REVISION">-</udmxml:Attribute>
##                </udmxml:Attributes>
##            </udmxml:Entity>
##            <udmxml:Entity xsi:type="udmxml:PartCType" displayName="tensile_0000.rad.p" contentDefinitionType="UDMPartProto" id="7b63cce36b78564b8061010d31872dd6:0">
##                <udmxml:Attributes>
##                    <udmxml:Attribute xsi:type="udmxml:AttributeCType" valueutf8="-" type="string" name="studyrevision" displayName="STUDY_REVISION">-</udmxml:Attribute>
##                    <udmxml:Attribute xsi:type="udmxml:AttributeCType" valueutf8="tensile_0000.rad" type="string" name="HW_UID">tensile_0000.rad</udmxml:Attribute>
##                    <udmxml:Attribute xsi:type="udmxml:AttributeCType" valueutf8="-" type="string" name="PLMXML_PRODUCTREVISION_REVISION">-</udmxml:Attribute>
##                </udmxml:Attributes>
##                <udmxml:Children>
##                    <udmxml:Child xsi:type="udmxml:ChildCType" refId="95861ac1ca976847851c46628ac1698b:0" timestamp="1711034504224808" childFlags="0" groupName="partprotoinst" contentDefinitionType="UDMPartProtoInst"/>
##                    <udmxml:Child xsi:type="udmxml:ChildCType" refId="9b22661af7b65f408c3d91aa0f1a6a6d:0" timestamp="1711034504224808" childFlags="0" groupName="partprotoinst" contentDefinitionType="UDMPartProtoInst"/>
##                </udmxml:Children>
##            </udmxml:Entity>
##            <udmxml:Entity xsi:type="udmxml:PartCType" displayName="Module Model.p" contentDefinitionType="UDMPartProto" id="ce673a2dd5fde44bb6922a40999392d7:0">
##                <udmxml:Children>
##                    <udmxml:Child xsi:type="udmxml:ChildCType" refId="320b0b562578274b93d6a91bb1b0aa6c:0" timestamp="1711034504224808" childFlags="0" groupName="partprotoinst" contentDefinitionType="UDMPartProtoInst"/>
##                </udmxml:Children>
##            </udmxml:Entity>
##            <udmxml:Entity xsi:type="udmxml:PartCType" displayName="RigidBody4.p" contentDefinitionType="UDMPartProto" id="e7bccb4ffe2761439d68ef431e098e67:0">
##                <udmxml:Attributes>
##                    <udmxml:Attribute xsi:type="udmxml:AttributeCType" valueutf8="-" type="string" name="studyrevision" displayName="STUDY_REVISION">-</udmxml:Attribute>
##                    <udmxml:Attribute xsi:type="udmxml:AttributeCType" valueutf8="RigidBody4" type="string" name="HW_UID">RigidBody4</udmxml:Attribute>
##                    <udmxml:Attribute xsi:type="udmxml:AttributeCType" valueutf8="-" type="string" name="PLMXML_PRODUCTREVISION_REVISION">-</udmxml:Attribute>
##                </udmxml:Attributes>
##            </udmxml:Entity>
##            <udmxml:Entity xsi:type="udmxml:PartCType" displayName="Tensile_coupon" contentDefinitionType="UDMPartProtoInst" id="95861ac1ca976847851c46628ac1698b:0">
##                <udmxml:Children>
##                    <udmxml:Child xsi:type="udmxml:ChildCType" refId="e06344dd7e8e7e4ba10030527439c52d:0" timestamp="1711034504224808" childFlags="0" groupName="partprotos" contentDefinitionType="UDMPartProto"/>
##                </udmxml:Children>
##            </udmxml:Entity>
##            <udmxml:Entity xsi:type="udmxml:PartCType" displayName="tensile_0000.rad" contentDefinitionType="UDMPartProtoInst" id="320b0b562578274b93d6a91bb1b0aa6c:0">
##                <udmxml:Children>
##                    <udmxml:Child xsi:type="udmxml:ChildCType" refId="7b63cce36b78564b8061010d31872dd6:0" timestamp="1711034504224808" childFlags="0" groupName="partprotos" contentDefinitionType="UDMPartProto"/>
##                </udmxml:Children>
##            </udmxml:Entity>
##            <udmxml:Entity xsi:type="udmxml:PartCType" displayName="RigidBody4" contentDefinitionType="UDMPartProtoInst" id="9b22661af7b65f408c3d91aa0f1a6a6d:0">
##                <udmxml:Children>
##                    <udmxml:Child xsi:type="udmxml:ChildCType" refId="e7bccb4ffe2761439d68ef431e098e67:0" timestamp="1711034504224808" childFlags="0" groupName="partprotos" contentDefinitionType="UDMPartProto"/>
##                </udmxml:Children>
##            </udmxml:Entity>
##            <udmxml:Entity xsi:type="udmxml:PartCType" protoInstanceRefId="95861ac1ca976847851c46628ac1698b:0" prototypeRefId="e06344dd7e8e7e4ba10030527439c52d:0" displayName="Tensile_coupon" contentDefinitionType="UDMPartProtoOcc" id="cd9e5e4ad84dd14f94b3025cbbbd1674:0">
##                <udmxml:Attributes>
##                    <udmxml:Attribute xsi:type="udmxml:AttributeCType" valueutf8="e06344dd7e8e7e4ba10030527439c52d" type="string" name="protoref" displayName="Prototype reference">e06344dd7e8e7e4ba10030527439c52d</udmxml:Attribute>
##                    <udmxml:Attribute xsi:type="udmxml:AttributeCType" valueutf8="95861ac1ca976847851c46628ac1698b" type="string" name="protoinstanceref" displayName="Prototype Instance reference">95861ac1ca976847851c46628ac1698b</udmxml:Attribute>
##                    <udmxml:Attribute xsi:type="udmxml:AttributeCType" valueutf8="Components(3)" type="string" name="EntitySelectionExp">Components(3)</udmxml:Attribute>
##                    <udmxml:Attribute xsi:type="udmxml:AttributeCType" valueutf8="3" type="string" name="SelectionExp">3</udmxml:Attribute>
##                    <udmxml:Attribute xsi:type="udmxml:AttributeCType" valueutf8="11" type="string" name="UdmxmlString_HmOccurrenceColor">11</udmxml:Attribute>
##                    <udmxml:Attribute xsi:type="udmxml:AttributeCType" valueutf8="6" type="string" name="UdmxmlString_HmOccurrenceId">6</udmxml:Attribute>
##                    <udmxml:Attribute xsi:type="udmxml:AttributeCType" valueutf8="9757073" type="string" name="UdmxmlString_HmOccurrenceTrueColor">9757073</udmxml:Attribute>
##                </udmxml:Attributes>
##            </udmxml:Entity>
##            <udmxml:Entity xsi:type="udmxml:PartCType" protoInstanceRefId="320b0b562578274b93d6a91bb1b0aa6c:0" prototypeRefId="7b63cce36b78564b8061010d31872dd6:0" displayName="tensile_0000.rad" contentDefinitionType="UDMPartProtoOcc" id="3668fe3ab4a06e41914834ac07c61622:0">
##                <udmxml:Attributes>
##                    <udmxml:Attribute xsi:type="udmxml:AttributeCType" valueutf8="7b63cce36b78564b8061010d31872dd6" type="string" name="protoref" displayName="Prototype reference">7b63cce36b78564b8061010d31872dd6</udmxml:Attribute>
##                    <udmxml:Attribute xsi:type="udmxml:AttributeCType" valueutf8="320b0b562578274b93d6a91bb1b0aa6c" type="string" name="protoinstanceref" displayName="Prototype Instance reference">320b0b562578274b93d6a91bb1b0aa6c</udmxml:Attribute>
##                    <udmxml:Attribute xsi:type="udmxml:AttributeCType" valueutf8="59" type="string" name="UdmxmlString_HmOccurrenceColor">59</udmxml:Attribute>
##                    <udmxml:Attribute xsi:type="udmxml:AttributeCType" valueutf8="4" type="string" name="UdmxmlString_HmOccurrenceId">4</udmxml:Attribute>
##                    <udmxml:Attribute xsi:type="udmxml:AttributeCType" valueutf8="6677714" type="string" name="UdmxmlString_HmOccurrenceTrueColor">6677714</udmxml:Attribute>
##                </udmxml:Attributes>
##                <udmxml:Children>
##                    <udmxml:Child xsi:type="udmxml:ChildCType" refId="cd9e5e4ad84dd14f94b3025cbbbd1674:0" timestamp="1711034504224808" childFlags="0" groupName="partprotooccs" contentDefinitionType="UDMPartProtoOcc">
##                        <AdditionalIdList xsi:type="udmxml:AdditionalIdCType" xmlns="http://schemas.altair.com/AltairUDM" keyValue="Tensile_coupon" keyName="displayname" contentDefinitionType="UDMPartProtoOcc"/>
##                    </udmxml:Child>
##                    <udmxml:Child xsi:type="udmxml:ChildCType" refId="51fb4f7c67a11d47865c76ea7a8e1d29:0" timestamp="1711034504224808" childFlags="0" groupName="partprotooccs" contentDefinitionType="UDMPartProtoOcc">
##                        <AdditionalIdList xsi:type="udmxml:AdditionalIdCType" xmlns="http://schemas.altair.com/AltairUDM" keyValue="RigidBody4" keyName="displayname" contentDefinitionType="UDMPartProtoOcc"/>
##                    </udmxml:Child>
##                </udmxml:Children>
##            </udmxml:Entity>
##            <udmxml:Entity xsi:type="udmxml:PartCType" prototypeRefId="ce673a2dd5fde44bb6922a40999392d7:0" displayName="Model" contentDefinitionType="UDMPartProtoOcc" id="017dae5be1386841b700e6a5315153ed:0">
##                <udmxml:Attributes>
##                    <udmxml:Attribute xsi:type="udmxml:AttributeCType" valueutf8="ce673a2dd5fde44bb6922a40999392d7" type="string" name="protoref" displayName="Prototype reference">ce673a2dd5fde44bb6922a40999392d7</udmxml:Attribute>
##                    <udmxml:Attribute xsi:type="udmxml:AttributeCType" valueutf8="59" type="string" name="UdmxmlString_HmOccurrenceColor">59</udmxml:Attribute>
##                    <udmxml:Attribute xsi:type="udmxml:AttributeCType" valueutf8="2" type="string" name="UdmxmlString_HmOccurrenceId">2</udmxml:Attribute>
##                    <udmxml:Attribute xsi:type="udmxml:AttributeCType" valueutf8="5745374" type="string" name="UdmxmlString_HmOccurrenceTrueColor">5745374</udmxml:Attribute>
##                    <udmxml:Attribute xsi:type="udmxml:AttributeCType" valueutf8="true" type="boolean" name="pseudo root">true</udmxml:Attribute>
##                </udmxml:Attributes>
##                <udmxml:Children>
##                    <udmxml:Child xsi:type="udmxml:ChildCType" refId="3668fe3ab4a06e41914834ac07c61622:0" timestamp="1711034504224808" childFlags="0" groupName="partprotooccs" contentDefinitionType="UDMPartProtoOcc">
##                        <AdditionalIdList xsi:type="udmxml:AdditionalIdCType" xmlns="http://schemas.altair.com/AltairUDM" keyValue="tensile_0000.rad" keyName="displayname" contentDefinitionType="UDMPartProtoOcc"/>
##                    </udmxml:Child>
##                </udmxml:Children>
##            </udmxml:Entity>
##            <udmxml:Entity xsi:type="udmxml:PartCType" protoInstanceRefId="9b22661af7b65f408c3d91aa0f1a6a6d:0" prototypeRefId="e7bccb4ffe2761439d68ef431e098e67:0" displayName="RigidBody4" contentDefinitionType="UDMPartProtoOcc" id="51fb4f7c67a11d47865c76ea7a8e1d29:0">
##                <udmxml:Attributes>
##                    <udmxml:Attribute xsi:type="udmxml:AttributeCType" valueutf8="e7bccb4ffe2761439d68ef431e098e67" type="string" name="protoref" displayName="Prototype reference">e7bccb4ffe2761439d68ef431e098e67</udmxml:Attribute>
##                    <udmxml:Attribute xsi:type="udmxml:AttributeCType" valueutf8="9b22661af7b65f408c3d91aa0f1a6a6d" type="string" name="protoinstanceref" displayName="Prototype Instance reference">9b22661af7b65f408c3d91aa0f1a6a6d</udmxml:Attribute>
##                    <udmxml:Attribute xsi:type="udmxml:AttributeCType" valueutf8="Components(4)" type="string" name="EntitySelectionExp">Components(4)</udmxml:Attribute>
##                    <udmxml:Attribute xsi:type="udmxml:AttributeCType" valueutf8="4" type="string" name="SelectionExp">4</udmxml:Attribute>
##                    <udmxml:Attribute xsi:type="udmxml:AttributeCType" valueutf8="10" type="string" name="UdmxmlString_HmOccurrenceColor">10</udmxml:Attribute>
##                    <udmxml:Attribute xsi:type="udmxml:AttributeCType" valueutf8="8" type="string" name="UdmxmlString_HmOccurrenceId">8</udmxml:Attribute>
##                    <udmxml:Attribute xsi:type="udmxml:AttributeCType" valueutf8="12568233" type="string" name="UdmxmlString_HmOccurrenceTrueColor">12568233</udmxml:Attribute>
##                </udmxml:Attributes>
##            </udmxml:Entity>
##        </udmxml:EntityCollection>
##        <udmxml:RelationCollection xsi:type="udmxml:RelationCollectionCType"/>
##        <udmxml:RootEntities xsi:type="udmxml:RootEntityCollectionCType">
##            <udmxml:ItemId>bd7df07facd1fe4ba631cd1673af5010:0</udmxml:ItemId>
##        </udmxml:RootEntities>
##    </UDM>
##</Altair_XML_Export>
