#RADIOSS STARTER
#--------------------------------------------------------------------------------------------------|
#- RADIOSS DECK WRITTEN BY HyperCrash
#HyperCrash 14.0 (64 bits) 
#Sun Dec 13 12:35:48 2015
#-
#
#
#-
#- DATE	Sun Dec 13 12:35:48 2015
#--------------------------------------------------------------------------------------------------|
#---1----|----2----|----3----|----4----|----5----|----6----|----7----|----8----|----9----|---10----|
/BEGIN
TWISBEAM                                                                        
       140         0
              453.35                25.4                   1
              453.35                25.4                   1
#---1----|----2----|----3----|----4----|----5----|----6----|----7----|----8----|----9----|---10----|
#-  1. CONTROL CARDS:
#---1----|----2----|----3----|----4----|----5----|----6----|----7----|----8----|----9----|---10----|
/TITLE
Twist beam convergence
#---1----|----2----|----3----|----4----|----5----|----6----|----7----|----8----|----9----|---10----|
/ANALY
#    N2D3D             IPARITH      ISUB
         0                   0         0
#---1----|----2----|----3----|----4----|----5----|----6----|----7----|----8----|----9----|---10----|
/DEF_SHELL
#   ISHELL    ISMSTR    ITHICK     IPLAS   ISTRAIN                        I_SH3N     IDRIL
         0         0         0         0         0                             1         0
#---1----|----2----|----3----|----4----|----5----|----6----|----7----|----8----|----9----|---10----|
/DEF_SOLID
#  I_SOLID    ISMSTR             ISTRAIN                                  IFRAME
         0         0                   0                                       0
#---1----|----2----|----3----|----4----|----5----|----6----|----7----|----8----|----9----|---10----|
/IOFLAG
#     IPRI               IGTYP     IOUTP    IOUTYY   IROOTYY     IDROT
         1                   0         0         0         0         0
#---1----|----2----|----3----|----4----|----5----|----6----|----7----|----8----|----9----|---10----|
/SHFRA/V4
#---1----|----2----|----3----|----4----|----5----|----6----|----7----|----8----|----9----|---10----|
/SPMD
#   DOMDEC     Nproc              Dkword             Nthread
         0         0                   0                   1
#---1----|----2----|----3----|----4----|----5----|----6----|----7----|----8----|----9----|---10----|
#-  2. MATERIALS:
#---1----|----2----|----3----|----4----|----5----|----6----|----7----|----8----|----9----|---10----|
/MAT/ELAST/1
material number _      1
#              RHO_I
             7.34E-4                   0
#                  E                  nu
             2.90E+7                0.22
#---1----|----2----|----3----|----4----|----5----|----6----|----7----|----8----|----9----|---10----|
#-  3. NODES:
#---1----|----2----|----3----|----4----|----5----|----6----|----7----|----8----|----9----|---10----|
/NODE
         2                  12                   2          -.55000001
         5                   8          1.72999999          -.47999999
         9                   4          1.52000001                -.28
        13                   0          1.44999999                   0
        27                   0          2.55000001                   0
        35                   8          2.27000001           .47999999
        38                  12                   2           .55000001
        40           3.9998103          2.48000734          .279987688
        41                  11                -.07          -.55000001
        42                  12                   0          -.55000001
        43                  10                -.14          -.52999997
        44                   9          -.20999999          -.50999999
        45                   8          -.27000001          -.47999999
        46                   7          -.33000001                -.44
        47                   6          -.38999999          -.38999999
        48                   5                -.44          -.33000001
        49                   4          -.47999999                -.28
        50                   3          -.50999999          -.20999999
        51                   2          -.52999997                -.14
        52                   1          -.55000001                -.07
# ... 152 like lines cut
#---1----|----2----|----3----|----4----|----5----|----6----|----7----|----8----|----9----|---10----|
#-  4. BOUNDARY CONDITIONS:
#---1----|----2----|----3----|----4----|----5----|----6----|----7----|----8----|----9----|---10----|
/BCS/1
03-05-2002        TIME : 18:09:10
#  Tra rot   skew_ID  grnod_ID
   111 111         0         2
/GRNOD/NODE/2
03-05-2002        TIME : 18:09:10
        13        27
#---1----|----2----|----3----|----4----|----5----|----6----|----7----|----8----|----9----|---10----|
/BCS/2
POR1D00_bcs1_111_111
#  Tra rot   skew_ID  grnod_ID
   111 111         0         3
/GRNOD/NODE/3
POR1D00_bcs1_111_111
        53        54        67
#---1----|----2----|----3----|----4----|----5----|----6----|----7----|----8----|----9----|---10----|
/BCS/3
POT1D00_bcs1_111_111
#  Tra rot   skew_ID  grnod_ID
   111 111         0         4
/GRNOD/NODE/4
POT1D00_bcs1_111_111
       207       208       209       234       235
#---1----|----2----|----3----|----4----|----5----|----6----|----7----|----8----|----9----|---10----|
#-  5. PARTS:
#---1----|----2----|----3----|----4----|----5----|----6----|----7----|----8----|----9----|---10----|
/PART/1
Part number 1
         1         1         0
#---1----|----2----|----3----|----4----|----5----|----6----|----7----|----8----|----9----|---10----|
# SHELL elements of /PART/1/Part number 1:
#---1----|----2----|----3----|----4----|----5----|----6----|----7----|----8----|----9----|---10----|
/SHELL/1
        25        13         9        40        27                                                 0
        26         9         5        35        40                                                 0
        27         5         2        38        35                                                 0
#---1----|----2----|----3----|----4----|----5----|----6----|----7----|----8----|----9----|---10----|
/PART/2
Part number 1
         2         1         0
#---1----|----2----|----3----|----4----|----5----|----6----|----7----|----8----|----9----|---10----|
# SHELL elements of /PART/2/Part number 1:
#---1----|----2----|----3----|----4----|----5----|----6----|----7----|----8----|----9----|---10----|
/SHELL/2
        28        41        42        66        65                                                 0
        29        44        43        64        63                                                 0
        30        43        41        65        64                                                 0
        31        45        44        63        62                                                 0
        32        46        45        62        61                                                 0
        33        47        46        61        60                                                 0
        34        48        47        60        59                                                 0
        35        49        48        59        58                                                 0
        36        50        49        58        57                                                 0
        37        51        50        57        56                                                 0
        38        52        51        56        55                                                 0
        39        53        52        55        54                                                 0
        40        54        55        68        67                                                 0
        41        55        56        69        68                                                 0
        42        56        57        70        69                                                 0
        43        57        58        71        70                                                 0
        44        58        59        72        71                                                 0
        45        59        60        73        72                                                 0
        46        61        60        73        74                                                 0
        47        62        61        74        75                                                 0
# ... 4 like lines cut
#---1----|----2----|----3----|----4----|----5----|----6----|----7----|----8----|----9----|---10----|
/PART/3
Part number 1
         3         1         0
#---1----|----2----|----3----|----4----|----5----|----6----|----7----|----8----|----9----|---10----|
# SHELL elements of /PART/3/Part number 1:
#---1----|----2----|----3----|----4----|----5----|----6----|----7----|----8----|----9----|---10----|
/SHELL/3
        52       165       163       177       176                                                 0
        53       163       159       178       177                                                 0
        54       159       160       179       178                                                 0
        55       160       161       180       179                                                 0
        56       161       162       181       180                                                 0
        57       167       164       185       184                                                 0
        58       164       165       176       185                                                 0
        59       166       167       184       183                                                 0
        60       168       166       183       186                                                 0
        61       169       168       186       189                                                 0
        62       170       169       189       188                                                 0
        63       171       170       188       191                                                 0
        64       172       171       191       193                                                 0
        65       173       172       193       192                                                 0
        66       174       173       192       196                                                 0
        67       175       174       196       195                                                 0
        68       182       175       195       199                                                 0
        69       187       182       199       198                                                 0
        70       190       187       198       200                                                 0
        71       177       178       230       229                                                 0
# ... 76 like lines cut
#---1----|----2----|----3----|----4----|----5----|----6----|----7----|----8----|----9----|---10----|
#-  6. GEOMETRICAL SETS:
#---1----|----2----|----3----|----4----|----5----|----6----|----7----|----8----|----9----|---10----|
/PROP/SHELL/1
Part number 1
#   Ishell    Ismstr     Ish3n    Idrill
        24         0         0         0
#                 hm                  hf                  hr                  dm                  dn
                 .01                 .01                 .01                   0                   0
#        N   Istrain               Thick              Ashear              Ithick     Iplas
         0         1                 .32                .833                   0         0
#---1----|----2----|----3----|----4----|----5----|----6----|----7----|----8----|----9----|---10----|
/PROP/SHELL/2
Part number 1
#   Ishell    Ismstr     Ish3n    Idrill
        24         0         0         0
#                 hm                  hf                  hr                  dm                  dn
                 .01                 .01                 .01                   0                   0
#        N   Istrain               Thick              Ashear              Ithick     Iplas
         0         1                 .32                .833                   0         0
#---1----|----2----|----3----|----4----|----5----|----6----|----7----|----8----|----9----|---10----|
/PROP/SHELL/3
Part number 1
#   Ishell    Ismstr     Ish3n    Idrill
        24         0         0         0
#                 hm                  hf                  hr                  dm                  dn
                 .01                 .01                 .01                   0                   0
#        N   Istrain               Thick              Ashear              Ithick     Iplas
         0         1                 .32                .833                   0         0
#---1----|----2----|----3----|----4----|----5----|----6----|----7----|----8----|----9----|---10----|
#-  7. FUNCTIONS:
#---1----|----2----|----3----|----4----|----5----|----6----|----7----|----8----|----9----|---10----|
/FUNCT/1
function_1
#                  X                   Y
                   0                   1                                                            
                1.01                   1                                                            
#---1----|----2----|----3----|----4----|----5----|----6----|----7----|----8----|----9----|---10----|
/FUNCT/3
function_1
#                  X                   Y
                   0                   1                                                            
                1.01                   1                                                            
#---1----|----2----|----3----|----4----|----5----|----6----|----7----|----8----|----9----|---10----|
#-  8. CONCENTRATED LOADS:
#---1----|----2----|----3----|----4----|----5----|----6----|----7----|----8----|----9----|---10----|
/CLOAD/1
TWISTYD00_cloads_1
#funct_IDT       Dir   skew_ID sensor_ID  grnod_ID                       Ascalex             Fscaley
         1         Y         0         0         8                             1                   1
/GRNOD/NODE/8
TWISTYD00_cloads_1
        66       233
#---1----|----2----|----3----|----4----|----5----|----6----|----7----|----8----|----9----|---10----|
/CLOAD/2
TWISTTRID00_cloads_1
#funct_IDT       Dir   skew_ID sensor_ID  grnod_ID                       Ascalex             Fscaley
         3         Y         0         0        11                             1                  .5
/GRNOD/NODE/11
n1
         2        38
#---1----|----2----|----3----|----4----|----5----|----6----|----7----|----8----|----9----|---10----|
#-  9. NODE GROUPS:
#---1----|----2----|----3----|----4----|----5----|----6----|----7----|----8----|----9----|---10----|
/GRNOD/GRNOD/12
New GRNOD 12
        13
#---1----|----2----|----3----|----4----|----5----|----6----|----7----|----8----|----9----|---10----|
/GRNOD/GRNOD/13
New GRNOD 12 _parts_subgroup_
        14
#---1----|----2----|----3----|----4----|----5----|----6----|----7----|----8----|----9----|---10----|
/GRNOD/PART/14
New GRNOD 12 _parts_subsubgroup_
         1         2         3
#---1----|----2----|----3----|----4----|----5----|----6----|----7----|----8----|----9----|---10----|
#- 10. TIME HISTORIES:
#---1----|----2----|----3----|----4----|----5----|----6----|----7----|----8----|----9----|---10----|
/TH/NODE/1
th_n
#     var1      var2      var3      var4      var5      var6      var7      var8      var9     var10
DEF       
#    NODid     Iskew                                           NODname
         2         01x3                                                                             
        38         01x3                                                                             
        66         02x12                                                                            
       233         04x24                                                                            
#---1----|----2----|----3----|----4----|----5----|----6----|----7----|----8----|----9----|---10----|
/END
#---1----|----2----|----3----|----4----|----5----|----6----|----7----|----8----|----9----|---10----|
