#RADIOSS STARTER
#--------------------------------------------------------------------------------------------------|
#- RADIOSS DECK WRITTEN BY HyperCrash
#HyperCrash 2019 (64 bits) 
#Fri Apr 19 11:50:14 2019
#-
##========================================================================================
##
## Radioss Input Deck Generated by HyperMesh Version  : 2017.2.2-HWDesktop
## Generated using HyperMesh-Radioss Template Version : 2017.2.2_hotfix-HWDesktop
## Date: 01-17-2019   Time: 19:10:05
##
##========================================================================================
##
##
#
#-
#- DATE	Fri Apr 19 11:50:14 2019
#--------------------------------------------------------------------------------------------------|
#---1----|----2----|----3----|----4----|----5----|----6----|----7----|----8----|----9----|---10----|
/BEGIN
rdv_0200_hardening_modulus
      2018         0
                  Mg                  mm                   s
                  Mg                  mm                   s
#---1----|----2----|----3----|----4----|----5----|----6----|----7----|----8----|----9----|---10----|
#-  1. CONTROL CARDS:
#---1----|----2----|----3----|----4----|----5----|----6----|----7----|----8----|----9----|---10----|
/TITLE
rdv_0200_hardening_modulus
#---1----|----2----|----3----|----4----|----5----|----6----|----7----|----8----|----9----|---10----|
#-  2. MATERIALS:
#---1----|----2----|----3----|----4----|----5----|----6----|----7----|----8----|----9----|---10----|
/MAT/PLAS_JOHNS/1
Steel
#              RHO_I
             7.75E-9                   0
#                  E                  Nu     Iflag
              193000                  .3         0
#                  a                   b                   n           EPS_p_max            SIG_max0
                 300             794.255                   1                   0                   0
#                  c           EPS_DOT_0       ICC   Fsmooth               F_cut               Chard
                   0                   0         0         0                   0                   0
#                  m              T_melt              rhoC_p                 T_r
                   0                   0                   0                   0
#---1----|----2----|----3----|----4----|----5----|----6----|----7----|----8----|----9----|---10----|
#-  3. NODES:
#---1----|----2----|----3----|----4----|----5----|----6----|----7----|----8----|----9----|---10----|
/NODE
         6                   0                   0                25.4
         7                25.4                   0                25.4
         8                25.4                25.4                25.4
         9                   0                25.4                25.4
        13                25.4                12.7                25.4
        14                12.7                   0                25.4
        15                   0                12.7                25.4
        16                12.7                25.4                25.4
        17                12.7                12.7                25.4
        19                   0                   0                12.7
        20                   0                12.7                12.7
        21                12.7                12.7                12.7
        22                12.7                   0                12.7
        23                   0                   0                   0
        24                   0                12.7     -3.55271368E-15
        25                12.7                12.7     -6.71483995E-15
        26                12.7                   0     -3.55271368E-15
        27                25.4                12.7                12.7
        28                25.4                   0                12.7
        29                25.4                12.7     -3.55271368E-15
# ... 7 like lines cut
#---1----|----2----|----3----|----4----|----5----|----6----|----7----|----8----|----9----|---10----|
#-  4. BOUNDARY CONDITIONS:
#---1----|----2----|----3----|----4----|----5----|----6----|----7----|----8----|----9----|---10----|
/BCS/1
Spc
#  Tra rot   skew_ID  grnod_ID
   001 000         0         1
/GRNOD/NODE/1
grnodnode
        23        24        25        26        29        30        33        34        36
#---1----|----2----|----3----|----4----|----5----|----6----|----7----|----8----|----9----|---10----|
#-  5. PARTS:
#---1----|----2----|----3----|----4----|----5----|----6----|----7----|----8----|----9----|---10----|
/PART/2
Comp
         1         1         0
#---1----|----2----|----3----|----4----|----5----|----6----|----7----|----8----|----9----|---10----|
# BRICK elements of /PART/2/Comp:
#---1----|----2----|----3----|----4----|----5----|----6----|----7----|----8----|----9----|---10----|
/BRICK/2
         1         6        15        17        14        19        20        21        22
         2        19        20        21        22        23        24        25        26
         7        14        17        13         7        22        21        27        28
         8        22        21        27        28        26        25        29        30
         9        15         9        16        17        20        31        32        21
        10        20        31        32        21        24        33        34        25
        11        17        16         8        13        21        32        35        27
        12        21        32        35        27        25        34        36        29
#---1----|----2----|----3----|----4----|----5----|----6----|----7----|----8----|----9----|---10----|
#-  6. GEOMETRICAL SETS:
#---1----|----2----|----3----|----4----|----5----|----6----|----7----|----8----|----9----|---10----|
/PROP/SOLID/1
property1
#   Isolid    Ismstr               Icpre               Inpts    Itetra    Iframe                  dn
        24         0                   0                   0         0         0                   0
#                q_a                 q_b                   h            LAMBDA_V                MU_V
                   0                   0                   0                   0                   0
#             dt_min   istrain      IHKT
                   0         0         0
#---1----|----2----|----3----|----4----|----5----|----6----|----7----|----8----|----9----|---10----|
#-  7. FUNCTIONS:
#---1----|----2----|----3----|----4----|----5----|----6----|----7----|----8----|----9----|---10----|
/FUNCT/1
Velocity
#                  X                   Y
                   0                -508
                 .05                -508
#---1----|----2----|----3----|----4----|----5----|----6----|----7----|----8----|----9----|---10----|
/FUNCT/2
velocity 2
#                  X                   Y
                   0                 508
                 .05                 508
#---1----|----2----|----3----|----4----|----5----|----6----|----7----|----8----|----9----|---10----|
#-  8. IMPOSED VELOCITIES:
#---1----|----2----|----3----|----4----|----5----|----6----|----7----|----8----|----9----|---10----|
/IMPVEL/2
velocity
#funct_IDT       Dir   skew_ID sensor_ID  grnod_ID  frame_ID     Icoor
         2         Z         0         0         4         0         0
#           Ascale_x            Fscale_Y              Tstart               Tstop
                   1                   1                   0                1E30
/GRNOD/NODE/4
grnodnode.3
         6         7         8         9        13        14        15        16        17
#---1----|----2----|----3----|----4----|----5----|----6----|----7----|----8----|----9----|---10----|
/TH/BRIC/1
elements
#     var1      var2      var3      var4      var5      var6      var7      var8      var9     var10
DEF       STRAIN
#     Elid                                                      Elname
         7          elem7                                                           
         1          elem1
         2          elem2
         8          elem8
         9          elem9
        10          elem10
        11          elem11
        12          elem12
#---1----|----2----|----3----|----4----|----5----|----6----|----7----|----8----|----9----|---10----|
/END
#---1----|----2----|----3----|----4----|----5----|----6----|----7----|----8----|----9----|---10----|
