#RADIOSS STARTER
/BEGIN
BOXIMP
      2022         0
                  Mg                  mm                   s
                  Mg                  mm                   s
/NODE
#   node_ID                   X                   Y                   Z
         1                 0.0                 0.0                 0.5
         2                 2.0                 0.0                 0.5
         3                 4.0                 0.0                 0.5
         4                 6.0                 0.0                 0.5
         5                 8.0                 0.0                 0.5
         6                10.0                 0.0                 0.5
         7                10.0                 2.0                 0.5
         8                10.0                 4.0                 0.5
         9                10.0                 6.0                 0.5
        10                10.0                 8.0                 0.5
        11                10.0                10.0                 0.5
        12                 8.0                10.0                 0.5
        13                 6.0                10.0                 0.5
        14                 4.0                10.0                 0.5
        15                 2.0                10.0                 0.5
        16                 0.0                10.0                 0.5
        17                 0.0                 8.0                 0.5
        18                 0.0                 6.0                 0.5
        19                 0.0                 4.0                 0.5
        20                 0.0                 2.0                 0.5
# ... 200 like lines cut
/SHELL/1
         1         1         2        22        21
         2         2         3        23        22
         3         3         4        24        23
         4         4         5        25        24
         5         5         6        26        25
         6         6         7        27        26
         7         7         8        28        27
         8         8         9        29        28
         9         9        10        30        29
        10        10        11        31        30
        11        11        12        32        31
        12        12        13        33        32
        13        13        14        34        33
        14        14        15        35        34
        15        15        16        36        35
        16        16        17        37        36
        17        17        18        38        37
        18        18        19        39        38
        19        19        20        40        39
        20        20         1        21        40
# ... 180 like lines cut
/PART/1
box walls
         1         1
/MAT/LAW2/1
mild steel Johnson-Cook
             7.8e-06
               210.0                 0.3
                0.25                 0.4                 0.5                 0.0                 0.0
          
          
/PROP/SHELL/1
box wall 0.5mm
#    Ishell    Ismstr     Ish3n    Idrill
         1         0         0         0
#                   hm                  hf                  hr
                0.01                0.01                0.01
#         N   Istrain               Thick
         3         0                 0.5
/GRNOD/PART/1
whole box
         1
/INIVEL/TRA/1
initial impact velocity
                 0.0                 0.0               -10.0         1
/RWALL/PLANE/1
ground plane
#   node_ID     Slide  grnd_ID1  grnd_ID2
         0
#  d/fric card blank: RESIDUE d=0 (real engine wall inert; harness patches 1e30) -- port skips this card
               1E+30
                 0.0                 0.0                 0.0
                 0.0                 0.0                 1.0
/TH/PART/1
box energies
IE        KE        
         1
/END
