#RADIOSS STARTER
#--------------------------------------------------------------------------------------------------|
#- RADIOSS DECK WRITTEN BY HyperCrash
#HyperCrash 14.0 (64 bits) 
#Mon Dec 21 15:04:03 2015
#-
#--------------------------------------------------------------------------------------------------|
#- RADIOSS DECK WRITTEN BY HyperCrash
#HyperCrash 10.0 SA2 (64 bits)
#Wed Jul 21 18:08:50 2010
#-
#
#
#-
#- DATE	Wed Jul 21 18:08:50 2010
#--------------------------------------------------------------------------------------------------|
#---1----|----2----|----3----|----4----|----5----|----6----|----7----|----8----|----9----|---10----|
#-
#- DATE	Mon Dec 21 15:04:03 2015
#--------------------------------------------------------------------------------------------------|
#---1----|----2----|----3----|----4----|----5----|----6----|----7----|----8----|----9----|---10----|
/BEGIN
I7PMCAM                                                                         
       140         0
                  kg                  mm                   s
                  kg                  mm                   s
#---1----|----2----|----3----|----4----|----5----|----6----|----7----|----8----|----9----|---10----|
#-  1. CONTROL CARDS:
#---1----|----2----|----3----|----4----|----5----|----6----|----7----|----8----|----9----|---10----|
/TITLE
I7PBFM1
#---1----|----2----|----3----|----4----|----5----|----6----|----7----|----8----|----9----|---10----|
/ANALY
#    N2D3D             IPARITH      ISUB
         0                   0         0
#---1----|----2----|----3----|----4----|----5----|----6----|----7----|----8----|----9----|---10----|
/DEF_SHELL
#   ISHELL    ISMSTR    ITHICK     IPLAS   ISTRAIN                        I_SH3N     IDRIL
         0         0         0         0         0                             0         0
#---1----|----2----|----3----|----4----|----5----|----6----|----7----|----8----|----9----|---10----|
/DEF_SOLID
#  I_SOLID    ISMSTR             ISTRAIN                                  IFRAME
         0         0                   0                                       0
#---1----|----2----|----3----|----4----|----5----|----6----|----7----|----8----|----9----|---10----|
/IOFLAG
#     IPRI               IGTYP     IOUTP    IOUTYY   IROOTYY     IDROT
         0                   0         0         0         0         0
#---1----|----2----|----3----|----4----|----5----|----6----|----7----|----8----|----9----|---10----|
/SPMD
#   DOMDEC     Nproc              Dkword             Nthread
         0         0                   0                   1
#---1----|----2----|----3----|----4----|----5----|----6----|----7----|----8----|----9----|---10----|
#-  2. MATERIALS:
#---1----|----2----|----3----|----4----|----5----|----6----|----7----|----8----|----9----|---10----|
/MAT/PLAS_JOHNS/1
STEEL
#              RHO_I
              7.8E-6              7.8E-6
#                  E                  Nu
           210000000                  .3
#                  a                   b                   n           EPS_p_max            SIG_max0
              200000              400000                  .5                   0                   0
#                  c           EPS_DOT_0       ICC   Fsmooth               F_cut               Chard
                   0                   0         0         0                   0                   0
#                  m              T_melt              rhoC_p                 T_r
                   0                   0                   0                   0
#---1----|----2----|----3----|----4----|----5----|----6----|----7----|----8----|----9----|---10----|
#-  3. NODES:
#---1----|----2----|----3----|----4----|----5----|----6----|----7----|----8----|----9----|---10----|
/NODE
         1                   0                   0                   0
         2                 -14                   0                   0
         3                   0                   0                 -14
         4                -3.5                   0                   0
         5                  -7                   0                   0
         6               -10.5                   0                   0
         7                   0                   0                -3.5
         8                   0                   0                  -7
         9                   0                   0               -10.5
        10         -5.34913977                   0         -12.9139652
        11         -9.89949493                   0         -9.89949493
        12         -12.9139654                   0         -5.34913924
        13          -9.2300934                   0          -3.8569333
        14         -7.14958808                   0         -6.99928553
        15         -3.94343673                   0          -9.1096922
        16         -3.30557373                   0         -6.11731749
        17         -3.27681598                   0         -3.16096218
        18         -6.44944318                   0         -3.17186363
        19         -5.81427415                   0         -5.34501474
        20                  14              -1E-10                   0
# ... 664 like lines cut
#---1----|----2----|----3----|----4----|----5----|----6----|----7----|----8----|----9----|---10----|
#-  4. BOUNDARY CONDITIONS:
#---1----|----2----|----3----|----4----|----5----|----6----|----7----|----8----|----9----|---10----|
/BCS/3
bcs springs
#  Tra rot   skew_ID  grnod_ID
   111 111         0        10
/GRNOD/NODE/10
low spring extremity
       900
#---1----|----2----|----3----|----4----|----5----|----6----|----7----|----8----|----9----|---10----|
/BCS/4
bcs cam
#  Tra rot   skew_ID  grnod_ID
   111 101         0        23
/GRNOD/NODE/23
cam master node master node
       901
#---1----|----2----|----3----|----4----|----5----|----6----|----7----|----8----|----9----|---10----|
/BCS/5
bcs valve
#  Tra rot   skew_ID  grnod_ID
   110 111         0        33
/GRNOD/NODE/33
valve rigid bodymaster node
       902
#---1----|----2----|----3----|----4----|----5----|----6----|----7----|----8----|----9----|---10----|
#-  5. SKEWS & FRAMES:
#---1----|----2----|----3----|----4----|----5----|----6----|----7----|----8----|----9----|---10----|
/FRAME/FIX/1
NULL
#                 OX                  OY                  OZ
                   0                  18                .185
#                 X1                  Y1                  Z1
                   0                   1                   0
#                 X2                  Y2                  Z2
                  -1                   0                   0
#---1----|----2----|----3----|----4----|----5----|----6----|----7----|----8----|----9----|---10----|
#-  6. PARTS:
#---1----|----2----|----3----|----4----|----5----|----6----|----7----|----8----|----9----|---10----|
/PART/1
CAM
         2         1         0
#---1----|----2----|----3----|----4----|----5----|----6----|----7----|----8----|----9----|---10----|
# BRICK elements of /PART/1/CAM:
#---1----|----2----|----3----|----4----|----5----|----6----|----7----|----8----|----9----|---10----|
/BRICK/1
        75        58         1         4        59       112       111       114       113
        76        57        58        59        60       115       112       113       116
        77        56        57        60        61       117       115       116       118
        78        55        56        61        62       119       117       118       120
        79        54        55        62        63       121       119       120       122
        80        53        54        63        64       123       121       122       124
        81        52        53        64        65       125       123       124       126
        82        42        52        65        51       127       125       126       128
        83        50        51        65        64       129       128       126       124
        84        49        50        64        66       130       129       124       131
        85        48        49        66        67       132       130       131       133
        86        47        48        67        68       134       132       133       135
        87        40        47        68        69       136       134       135       137
        88        46        40        69        70       138       136       137       139
        89         2        46        70         6       140       138       139       141
        90         5         6        70        71       142       141       139       143
        91         4         5        71        59       114       142       143       113
        92        60        59        71        72       116       113       143       144
        93        61        60        72        73       118       116       144       145
        94        62        61        73        74       120       118       145       146
# ... 350 like lines cut
#---1----|----2----|----3----|----4----|----5----|----6----|----7----|----8----|----9----|---10----|
/PART/2
VALVE
         2         1         0
#---1----|----2----|----3----|----4----|----5----|----6----|----7----|----8----|----9----|---10----|
# BRICK elements of /PART/2/VALVE:
#---1----|----2----|----3----|----4----|----5----|----6----|----7----|----8----|----9----|---10----|
/BRICK/2
       445       671       672       673       674       734       733       736       735
       446       670       671       674       675       737       734       735       738
       447       663       670       675       669       739       737       738       740
       448       668       669       675       676       741       740       738       742
       449       667       668       676       677       743       741       742       744
       450       661       667       677       666       745       743       744       746
       451       672       662       664       673       733       747       748       736
       452       664       665       678       673       748       749       750       736
       453       675       674       673       678       738       735       736       750
       454       676       675       678       677       742       738       750       744
       455       665       666       677       678       749       746       744       750
       456       734       733       736       735       752       751       754       753
       457       737       734       735       738       755       752       753       756
       458       739       737       738       740       757       755       756       758
       459       741       740       738       742       759       758       756       760
       460       743       741       742       744       761       759       760       762
       461       745       743       744       746       763       761       762       764
       462       733       747       748       736       751       765       766       754
       463       748       749       750       736       766       767       768       754
       464       738       735       736       750       756       753       754       768
# ... 68 like lines cut
#---1----|----2----|----3----|----4----|----5----|----6----|----7----|----8----|----9----|---10----|
/PART/3
SPRING 1
         1         0         0
#---1----|----2----|----3----|----4----|----5----|----6----|----7----|----8----|----9----|---10----|
# SPRING elements of /PART/3/SPRING 1:
#---1----|----2----|----3----|----4----|----5----|----6----|----7----|----8----|----9----|---10----|
/SPRING/3
         1       902       900                                        
#---1----|----2----|----3----|----4----|----5----|----6----|----7----|----8----|----9----|---10----|
/PART/4
SPRING 2
         3         0         0
#---1----|----2----|----3----|----4----|----5----|----6----|----7----|----8----|----9----|---10----|
# SPRING elements of /PART/4/SPRING 2:
#---1----|----2----|----3----|----4----|----5----|----6----|----7----|----8----|----9----|---10----|
/SPRING/4
         2       902       900                                        
#---1----|----2----|----3----|----4----|----5----|----6----|----7----|----8----|----9----|---10----|
#-  7. GEOMETRICAL SETS:
#---1----|----2----|----3----|----4----|----5----|----6----|----7----|----8----|----9----|---10----|
/PROP/SPRING/1
spring 1
#                  M                               sensor_ID    Isflag     Ileng
                  .1                                       0         0         0
#                  K                   C                   A                   B                   D
               30000                   0                   0                   0                   0
#funct_ID1         H funct_ID2 funct_ID3 funct_ID4                     delta_min           delta_max
         2         0         0         0         0                             0                   0
#            Fscale1                   E             Ascalex             HSCALE4
                   0                   0                   0                   0
#---1----|----2----|----3----|----4----|----5----|----6----|----7----|----8----|----9----|---10----|
/PROP/SOLID/2
general solid
#   Isolid    Ismstr               Icpre               Inpts    Itetra    Iframe                  dn
        24         0                   0                   0         0         0                   0
#                q_a                 q_b                   h            LAMBDA_V                MU_V
                   0                   0                   0                   0                   0
#             dt_min   istrain      IHKT
                   0         0         0
#---1----|----2----|----3----|----4----|----5----|----6----|----7----|----8----|----9----|---10----|
/PROP/SPRING/3
spring 2
#                  M                               sensor_ID    Isflag     Ileng
                 .05                                       0         0         0
#                  K                   C                   A                   B                   D
               15000                   0                   0                   0                   0
#funct_ID1         H funct_ID2 funct_ID3 funct_ID4                     delta_min           delta_max
         3         0         0         0         0                             0                   0
#            Fscale1                   E             Ascalex             HSCALE4
                   0                   0                   0                   0
#---1----|----2----|----3----|----4----|----5----|----6----|----7----|----8----|----9----|---10----|
#-  8. FUNCTIONS:
#---1----|----2----|----3----|----4----|----5----|----6----|----7----|----8----|----9----|---10----|
/FUNCT/1
imposed cam rotation
#                  X                   Y
                   0                   1                                                            
                1000                   1                                                            
#---1----|----2----|----3----|----4----|----5----|----6----|----7----|----8----|----9----|---10----|
/FUNCT/2
stiffness spring 1
#                  X                   Y
                 -40            -1500000                                                            
                   0             -300000                                                            
                  50             1200000                                                            
#---1----|----2----|----3----|----4----|----5----|----6----|----7----|----8----|----9----|---10----|
/FUNCT/3
stiffness spring 2
#                  X                   Y
                 -40             -750000                                                            
                   0             -150000                                                            
                  50              600000                                                            
#---1----|----2----|----3----|----4----|----5----|----6----|----7----|----8----|----9----|---10----|
#-  9. INITIAL VELOCITIES:
#---1----|----2----|----3----|----4----|----5----|----6----|----7----|----8----|----9----|---10----|
/INIVEL/AXIS/1
initial cam rotation
#      DIR  FRAME_ID  GRNOD_ID
         Y         1        50
#                Vxt                 Vyt                 Vzt                  VR
                   0                   0                   0                 314
/GRNOD/NODE/50
cam
         1         2         3         4         5         6         7         8         9        10
        11        12        13        14        15        16        17        18        19        20
        21        22        23        24        25        26        27        31        33        35
        36        37        38        40        42        46        47        48        49        50
        51        52        53        54        55        56        57        58        59        60
        61        62        63        64        65        66        67        68        69        70
        71        72        73        74        77        80        82        84        86        88
        90        92        93        94        95        96        97        98        99       100
       101       102       103       107       108       109       110       111       112       113
       114       115       116       117       118       119       120       121       122       123
       124       125       126       127       128       129       130       131       132       133
       134       135       136       137       138       139       140       141       142       143
       144       145       146       147       148       149       150       151       152       153
       154       155       156       157       158       159       160       161       162       163
       164       165       166       167       168       169       170       171       172       173
       174       175       176       177       178       179       180       181       182       183
       184       185       186       187       188       189       190       191       192       193
       194       195       196       197       198       199       200       201       202       203
       204       205       206       207       208       209       210       211       212       213
       214       215       216       217       218       219       220       221       222       223
# ... 33 like lines cut
#---1----|----2----|----3----|----4----|----5----|----6----|----7----|----8----|----9----|---10----|
#- 10. SENSORS:
#---1----|----2----|----3----|----4----|----5----|----6----|----7----|----8----|----9----|---10----|
/SENSOR/TIME/1
time
#         Tdelay
                2E-4
#---1----|----2----|----3----|----4----|----5----|----6----|----7----|----8----|----9----|---10----|
#- 11. INTERFACES:
#---1----|----2----|----3----|----4----|----5----|----6----|----7----|----8----|----9----|---10----|
/INTER/TYPE7/1
interface 7
#  Slav_id   Mast_id      Istf      Ithe      Igap                Ibag      Idel     Icurv      Iadm
        17         3         0         0         0                   0         0         0         0
#          Fscalegap             GAP_MAX             Fpenmax
                   0                   0                   0
#              Stmin               Stmax          %mesh_size               dtmin  Irem_gap
                   0                   0                   0                   0         0
#              Stfac                Fric              Gapmin              Tstart               Tstop
                   0                   0                 .05                   0                   0
#      IBC                        Inacti                VisS                VisF              Bumult
       000                             0                   0                   0                   0
#    Ifric    Ifiltr               Xfreq     Iform   sens_ID
         0         0                   0         0         0
/GRNOD/NODE/17
came extrenal surface
         2         3        10        11        12        20        21        24        26        40
        42        46        47        48        49        50        51        92        93        94
        96        98       100       102       127       128       129       130       132       134
       136       138       140       163       164       165       166       168       170       172
       174       176       199       200       201       202       204       206       208       210
       212       235       236       237       238       240       242       244       246       248
       271       272       273       274       276       278       280       282       284       292
       295       297       299       311       314       316       318       330       333       335
       337       349       352       354       356       368       371       373       375       403
       404       405       407       409       411       413       415       439       440       441
       443       445       447       449       451       475       476       477       479       481
       483       485       487       511       512       513       515       517       519       521
       523       547       548       549       551       553       555       557       559       567
       570       572       586       589       591       605       608       610       624       627
       629       643       646       648
/SURF/SEG/3
upper valve surface
         1       752       751       754       753
         2       751       752       825       826
         3       751       765       766       754
         4       765       751       826       838
         5       755       752       753       756
         6       752       755       828       825
         7       756       753       754       768
         8       766       767       768       754
         9       757       755       756       758
        10       755       757       830       828
        11       759       758       756       760
        12       760       756       768       762
        13       791       757       758       792
        14       757       791       864       830
        15       758       759       796       792
        16       761       759       760       762
        17       759       761       798       796
        18       763       761       762       764
        19       761       763       800       798
        20       767       764       762       768
# ... 24 like lines cut
#---1----|----2----|----3----|----4----|----5----|----6----|----7----|----8----|----9----|---10----|
#- 12. RIGID BODIES:
#---1----|----2----|----3----|----4----|----5----|----6----|----7----|----8----|----9----|---10----|
/RBODY/1
cam rigid body
#     RBID     ISENS     NSKEW    ISPHER                MASS   Gnod_id     IKREM      ICOG   Surf_id
       901         0         0         0                   0        46         0         3         0
#                Jxx                 Jyy                 Jzz
                   0                   0                   0
#                Jxy                 Jyz                 Jxz
                   0                   0                   0
#Ioptoff
         0
/GRNOD/NODE/46
cam rigid body
         1         4         5         7         8        16        17        18        19        31
        33        35        36        37        38        54        55        56        57        58
        59        60        61        62        63        71        72        73        74        77
        80        82        84        86       107       108       109       110       111       112
       113       114       115       116       117       118       119       120       121       122
       142       143       144       145       146       147       148       149       150       151
       152       153       154       155       156       157       158       178       179       180
       181       182       183       184       185       186       187       188       189       190
       191       192       193       194       214       215       216       217       218       219
       220       221       222       223       224       225       226       227       228       229
       230       250       251       252       253       254       255       256       257       258
       259       260       261       262       263       264       265       266       286       287
       288       289       290       301       302       303       304       308       309       320
       321       322       323       327       328       339       340       341       342       346
       347       358       359       360       361       365       366       377       378       379
       380       384       385       388       389       391       393       395       397       417
       418       419       420       421       424       425       427       429       431       433
       453       454       455       456       457       460       461       463       465       467
       469       489       490       491       492       493       496       497       499       501
       503       505       525       526       527       528       529       532       533       535
       537       539       541       561       562       563       564       565       577       579
       583       584       596       598       602       603       615       617       621       622
       634       636       640       641       653       655       659       660
#---1----|----2----|----3----|----4----|----5----|----6----|----7----|----8----|----9----|---10----|
/RBODY/2
valve rigid body
#     RBID     ISENS     NSKEW    ISPHER                MASS   Gnod_id     IKREM      ICOG   Surf_id
       902         0         0         0                   0        29         0         0         0
#                Jxx                 Jyy                 Jzz
                   0                   0                   0
#                Jxy                 Jyz                 Jxz
                   0                   0                   0
#Ioptoff
         0
/GRNOD/NODE/29
valve rigid body
       661       662       663       664       665       666       667       668       669       670
       671       672       673       674       675       676       677       678       681       682
       684       686       687       688       689       690       691       692       694       695
       696       697       698       699       700       701       702       706       708       710
       711       712       713       714       717       718       720       724       726       728
       730       731       732
#---1----|----2----|----3----|----4----|----5----|----6----|----7----|----8----|----9----|---10----|
#- 13. IMPOSED VELOCITIES:
#---1----|----2----|----3----|----4----|----5----|----6----|----7----|----8----|----9----|---10----|
/IMPVEL/1
imposed cam rotation
#funct_IDT       Dir   skew_ID sensor_ID  grnod_ID  frame_ID     Icoor
         1        YY         0         1        23         0         0
#           Ascale_x            Fscale_Y              Tstart               Tstop
                   0                 314                   0                   0
#---1----|----2----|----3----|----4----|----5----|----6----|----7----|----8----|----9----|---10----|
#- 14. TIME HISTORIES:
#---1----|----2----|----3----|----4----|----5----|----6----|----7----|----8----|----9----|---10----|
/TH/NODE/4
valve rigid body master node
#     var1      var2      var3      var4      var5      var6      var7      var8      var9     var10
AZ        DZ        VZ        
#    NODid     Iskew                                           NODname
       902         0masternode_plate_group_0                                                        
#---1----|----2----|----3----|----4----|----5----|----6----|----7----|----8----|----9----|---10----|
/TH/NODE/5
cam rigid body master node
#     var1      var2      var3      var4      var5      var6      var7      var8      var9     var10
ARY       DZ        VRY       
#    NODid     Iskew                                           NODname
       901         0masternode came_group_0                                                         
#---1----|----2----|----3----|----4----|----5----|----6----|----7----|----8----|----9----|---10----|
/TH/NODE/6
high extremity cam node
#     var1      var2      var3      var4      var5      var6      var7      var8      var9     var10
ARY       AX        AZ        DX        DZ        VRY       VX        VZ        
#    NODid     Iskew                                           NODname
       199         0masternode came_group_0                                                         
#---1----|----2----|----3----|----4----|----5----|----6----|----7----|----8----|----9----|---10----|
/END
#---1----|----2----|----3----|----4----|----5----|----6----|----7----|----8----|----9----|---10----|
