#RADIOSS STARTER
#--------------------------------------------------------------------------------------------------|
#- RADIOSS DECK WRITTEN BY HyperCrash
#HyperCrash 14.120 (64 bits) 
#Thu Oct 20 14:03:24 2016
#-
#--------------------------------------------------------------------------------------------------|
#- RADIOSS DECK WRITTEN BY HyperCrash
#HyperCrash 14.120 (64 bits)
#Mon Oct 17 11:58:52 2016
#-
#-
#- DATE	Mon Oct 17 11:58:52 2016
#--------------------------------------------------------------------------------------------------|
#---1----|----2----|----3----|----4----|----5----|----6----|----7----|----8----|----9----|---10----|
#
#-
#- DATE	Thu Oct 20 14:03:24 2016
#--------------------------------------------------------------------------------------------------|
#---1----|----2----|----3----|----4----|----5----|----6----|----7----|----8----|----9----|---10----|
/BEGIN
fan_blade_initialize                                                            
       140         0
                  Mg                  mm                   s
                  Mg                  mm                   s
#---1----|----2----|----3----|----4----|----5----|----6----|----7----|----8----|----9----|---10----|
#-  1. CONTROL CARDS:
#---1----|----2----|----3----|----4----|----5----|----6----|----7----|----8----|----9----|---10----|
/TITLE
rotating blades 1000 rpm
#---1----|----2----|----3----|----4----|----5----|----6----|----7----|----8----|----9----|---10----|
#include blade_nodes_elements.inc
#---1----|----2----|----3----|----4----|----5----|----6----|----7----|----8----|----9----|---10----|
#-  2. MATERIALS:
#---1----|----2----|----3----|----4----|----5----|----6----|----7----|----8----|----9----|---10----|
/MAT/PLAS_JOHNS/1
blade material
#              RHO_I
             4.43E-9                   0
#                  E                  Nu     Iflag
              113400                .342         0
#                  a                   b                   n           EPS_p_max            SIG_max0
                1098                1092                 .93                   0                   0
#                  c           EPS_DOT_0       ICC   Fsmooth               F_cut               Chard
                .014                 .01         0         0                   0                   0
#                  m              T_melt              rhoC_p                 T_r
                   0                   0                   0                   0
#---1----|----2----|----3----|----4----|----5----|----6----|----7----|----8----|----9----|---10----|
/MAT/PLAS_JOHNS/2
STEEL
#              RHO_I
              7.9E-9                   0
#                  E                  Nu     Iflag
              210000                  .3         0
#                  a                   b                   n           EPS_p_max            SIG_max0
                 200                 450                  .5                1E30                 425
#                  c           EPS_DOT_0       ICC   Fsmooth               F_cut               Chard
                   0                   0         0         0                   0                   0
#                  m              T_melt              rhoC_p                 T_r
                   0                   0                   0                   0
#---1----|----2----|----3----|----4----|----5----|----6----|----7----|----8----|----9----|---10----|
#-  3. NODES:
#---1----|----2----|----3----|----4----|----5----|----6----|----7----|----8----|----9----|---10----|
/NODE
         5                   0                   0                   0
      3651     827.74122625709     82.828002386895                -240
      3652     827.74122625709     82.828002386895                -160
      3653     827.74122625709     82.828002386895                 -80
      3654     827.74122625709     82.828002386895                   0
      3655     827.74122625709     82.828002386895                  80
      3656     827.74122625709     82.828002386895                 160
      3657     827.74122625709     82.828002386895                 240
      3658     815.38098832901       164.832822874                -240
      3659     815.38098832901       164.832822874                -160
      3660     815.38098832901       164.832822874                 -80
      3661     815.38098832901       164.832822874                   0
      3662     815.38098832901       164.832822874                  80
      3663     815.38098832901       164.832822874                 160
      3664     815.38098832901       164.832822874                 240
      3665     794.91712781335     245.19946071307                -240
      3666     794.91712781335     245.19946071307                -160
      3667     794.91712781335     245.19946071307                 -80
      3668     794.91712781335     245.19946071307                   0
      3669     794.91712781335     245.19946071307                  80
# ... 548 like lines cut
#---1----|----2----|----3----|----4----|----5----|----6----|----7----|----8----|----9----|---10----|
#-  4. BOUNDARY CONDITIONS:
#---1----|----2----|----3----|----4----|----5----|----6----|----7----|----8----|----9----|---10----|
/BCS/1
center
#  Tra rot   skew_ID  grnod_ID
   111 111         0         3
/GRNOD/NODE/3
center node
         5
#---1----|----2----|----3----|----4----|----5----|----6----|----7----|----8----|----9----|---10----|
/BCS/2
case
#  Tra rot   skew_ID  grnod_ID
   111 000         0         5
/GRNOD/NODE/5
BCS_group_151_of_NODE
      4092      4093      4094      4095      4096      4097      4098      4099      4100      4101
      4102      4103      4104      4105      4106      4107      4108      4109      4110      4111
      4112      4113      4114      4115      4116      4117      4118      4119      4120      4121
      4122      4123      4124      4125      4126      4127      4128      4129      4130      4131
      4132      4133      4134      4135      4136      4137      4138      4139      4140      4141
      4142      4143      4144      4145      4146      4147      4148      4149      4150      4151
      4152      4153      4154      4155      4156      4157      4158      4159      4160      4161
      4162      4163      4164      4165      4166      4167      4168      4169      4170      4171
      4172      4173      4174      4175      4176      4177      4178      4179      4180      4181
      4182      4183      4184      4185      4186      4187      4188      4189      4190      4191
      4192      4193      4194      4195      4196      4197      4198      4199      4200      4201
      4202      4203      4204      4205      4206      4207      4208      4209      4210      4211
      4212      4213      4214      4215      4216      4217
#---1----|----2----|----3----|----4----|----5----|----6----|----7----|----8----|----9----|---10----|
#-  5. PARTS:
#---1----|----2----|----3----|----4----|----5----|----6----|----7----|----8----|----9----|---10----|
/PART/1
blades
         1         1         0
#---1----|----2----|----3----|----4----|----5----|----6----|----7----|----8----|----9----|---10----|
/PART/2
Case
         2         2         0
#---1----|----2----|----3----|----4----|----5----|----6----|----7----|----8----|----9----|---10----|
# SHELL elements of /PART/2/Case:
#---1----|----2----|----3----|----4----|----5----|----6----|----7----|----8----|----9----|---10----|
/SHELL/2
      3385      4092      4085      3651      4094                                                 0
      3386      4085      4086      3652      3651                                                 0
      3387      4086      4087      3653      3652                                                 0
      3388      4087      4088      3654      3653                                                 0
      3389      4088      4089      3655      3654                                                 0
      3390      4089      4090      3656      3655                                                 0
      3391      4090      4091      3657      3656                                                 0
      3392      4091      4093      4095      3657                                                 0
      3393      4094      3651      3658      4096                                                 0
      3394      3651      3652      3659      3658                                                 0
      3395      3652      3653      3660      3659                                                 0
      3396      3653      3654      3661      3660                                                 0
      3397      3654      3655      3662      3661                                                 0
      3398      3655      3656      3663      3662                                                 0
      3399      3656      3657      3664      3663                                                 0
      3400      3657      4095      4097      3664                                                 0
      3401      4096      3658      3665      4098                                                 0
      3402      3658      3659      3666      3665                                                 0
      3403      3659      3660      3667      3666                                                 0
      3404      3660      3661      3668      3667                                                 0
# ... 420 like lines cut
#---1----|----2----|----3----|----4----|----5----|----6----|----7----|----8----|----9----|---10----|
/PART/3
Reinforcement
         3         2         0
#---1----|----2----|----3----|----4----|----5----|----6----|----7----|----8----|----9----|---10----|
# SHELL elements of /PART/3/Reinforcement:
#---1----|----2----|----3----|----4----|----5----|----6----|----7----|----8----|----9----|---10----|
/SHELL/3
      3825      4098      3665      3672      4100                                                 0
      3826      3665      3666      3673      3672                                                 0
      3827      3666      3667      3674      3673                                                 0
      3828      3667      3668      3675      3674                                                 0
      3829      3668      3669      3676      3675                                                 0
      3830      3669      3670      3677      3676                                                 0
      3831      3670      3671      3678      3677                                                 0
      3832      3671      4099      4101      3678                                                 0
      3833      4116      3728      3735      4118                                                 0
      3834      3728      3729      3736      3735                                                 0
      3835      3729      3730      3737      3736                                                 0
      3836      3730      3731      3738      3737                                                 0
      3837      3731      3732      3739      3738                                                 0
      3838      3732      3733      3740      3739                                                 0
      3839      3733      3734      3741      3740                                                 0
      3840      3734      4117      4119      3741                                                 0
      3841      4130      3777      3784      4132                                                 0
      3842      3777      3778      3785      3784                                                 0
      3843      3778      3779      3786      3785                                                 0
      3844      3779      3780      3787      3786                                                 0
# ... 44 like lines cut
#---1----|----2----|----3----|----4----|----5----|----6----|----7----|----8----|----9----|---10----|
#-  6. GEOMETRICAL SETS:
#---1----|----2----|----3----|----4----|----5----|----6----|----7----|----8----|----9----|---10----|
/PROP/SHELL/1
blade section
#   Ishell    Ismstr     Ish3n    Idrill
        24         2         0         0
#                 hm                  hf                  hr                  dm                  dn
                   0                   0                   0                   0                   0
#        N   Istrain               Thick              Ashear              Ithick     Iplas
         5         0                   5                .833                   1         1
#---1----|----2----|----3----|----4----|----5----|----6----|----7----|----8----|----9----|---10----|
/PROP/SHELL/2
case
#   Ishell    Ismstr     Ish3n    Idrill
        24         0         0         0
#                 hm                  hf                  hr                  dm                  dn
                   0                   0                   0                   0                   0
#        N   Istrain               Thick              Ashear              Ithick     Iplas
         0         0                   5                   0                   1         1
#---1----|----2----|----3----|----4----|----5----|----6----|----7----|----8----|----9----|---10----|
/PROP/SHELL/3
reinforce
#   Ishell    Ismstr     Ish3n    Idrill
        24         0         0         0
#                 hm                  hf                  hr                  dm                  dn
                   0                   0                   0                   0                   0
#        N   Istrain               Thick              Ashear              Ithick     Iplas
         0         0                 7.5                   0                   1         1
#---1----|----2----|----3----|----4----|----5----|----6----|----7----|----8----|----9----|---10----|
#-  7. FUNCTIONS:
#---1----|----2----|----3----|----4----|----5----|----6----|----7----|----8----|----9----|---10----|
/FUNCT/1
centri function
#                  X                   Y
                   0                   0                                                            
                  .1              104.72                                                            
#---1----|----2----|----3----|----4----|----5----|----6----|----7----|----8----|----9----|---10----|
/FUNCT/2
imposed velocity
#                  X                   Y
                   0              104.72                                                            
                  .1              104.72                                                            
                   1              104.72                                                            
#---1----|----2----|----3----|----4----|----5----|----6----|----7----|----8----|----9----|---10----|
#-  8. SENSORS:
#---1----|----2----|----3----|----4----|----5----|----6----|----7----|----8----|----9----|---10----|
/SENSOR/NOT/1
turn off centri load
#         Tdelay
                   0
#   sensor
         2
#---1----|----2----|----3----|----4----|----5----|----6----|----7----|----8----|----9----|---10----|
/SENSOR/TIME/2
time to turn off via load centri via sensor id 1. turn on imposed velocity
#         Tdelay
                  .1
#---1----|----2----|----3----|----4----|----5----|----6----|----7----|----8----|----9----|---10----|
#-  9. INTERFACES:
#---1----|----2----|----3----|----4----|----5----|----6----|----7----|----8----|----9----|---10----|
/INTER/TYPE7/1
contact
#  Slav_id   Mast_id      Istf      Ithe      Igap                Ibag      Idel     Icurv      Iadm
         6        10         4         0         3                   0         2         0         0
#          Fscalegap             Gap_max             Fpenmax
                   0                   0                   0
#              Stmin               Stmax          %mesh_size               dtmin  Irem_gap   Irem_i2
                   0                   0                   0                   0         0         0
#              Stfac                Fric              Gapmin              Tstart               Tstop
                   0                   0                   0                   0                   0
#      IBC                        Inacti                VisS                VisF              Bumult
       000                             0                   0                   0                   0
#    Ifric    Ifiltr               Xfreq     Iform   sens_ID
         0         0                   0         0         0
/GRNOD/SURF/6
INTER_group_154_of_SURF
        10
/SURF/PART/10
INTER_group_153_of_PART
         1         2         3
#---1----|----2----|----3----|----4----|----5----|----6----|----7----|----8----|----9----|---10----|
#- 10. RIGID BODIES:
#---1----|----2----|----3----|----4----|----5----|----6----|----7----|----8----|----9----|---10----|
/RBODY/1
center
#     RBID     ISENS     NSKEW    ISPHER                MASS   Gnod_id     IKREM      ICOG   Surf_id
         5         0         0         0                   0         2         0         3         0
#                Jxx                 Jyy                 Jzz
                   0                   0                   0
#                Jxy                 Jyz                 Jxz
                   0                   0                   0
#Ioptoff
         0
/GRNOD/NODE/2
RBODY_group_11_of_NODE
         1         2         6         7         8         9        10        11        12        13
        14        15        16        17        18        19        20        21        22       915
       916       919       920       921       922       923       924       925       926       927
       928       929       930       931       932       933       934       935      1827      1828
      1831      1832      1833      1834      1835      1836      1837      1838      1839      1840
      1841      1842      1843      1844      1845      1846      1847      2739      2740      2743
      2744      2745      2746      2747      2748      2749      2750      2751      2752      2753
      2754      2755      2756      2757      2758      2759
#---1----|----2----|----3----|----4----|----5----|----6----|----7----|----8----|----9----|---10----|
#- 11. IMPOSED VELOCITIES:
#---1----|----2----|----3----|----4----|----5----|----6----|----7----|----8----|----9----|---10----|
/IMPVEL/1
rotate in z
#funct_IDT       Dir   skew_ID sensor_ID  grnod_ID  frame_ID     Icoor
         2        ZZ         0         2         4         0         0
#           Ascale_x            Fscale_Y              Tstart               Tstop
                   1                   1                   0                   0
/GRNOD/NODE/4
IMPVEL_group_13_of_NODE
         5
#---1----|----2----|----3----|----4----|----5----|----6----|----7----|----8----|----9----|---10----|
#- 12. LOAD_VELOCITY_FIELD:
#---1----|----2----|----3----|----4----|----5----|----6----|----7----|----8----|----9----|---10----|
/LOAD/CENTRI/1
centri load
#funct_IDT       Dir  frame_ID sensor_ID  grnod_ID      Ivar             Ascalex             Fscaley
         1        ZZ         0         1         1         1                   1                   1
/GRNOD/PART/1
LOAD_VELOCITY_FIELD_group_5_of_PART
         1
#---1----|----2----|----3----|----4----|----5----|----6----|----7----|----8----|----9----|---10----|
#- 13. 4 NODE SHELL GROUPS:
#---1----|----2----|----3----|----4----|----5----|----6----|----7----|----8----|----9----|---10----|
/GRSHEL/SHEL/9
failure_shells copy and pasted into engine file
        50        51        56        57        74        75        79        81        82       149
       150       155       156       173       174       178       180       181
#---1----|----2----|----3----|----4----|----5----|----6----|----7----|----8----|----9----|---10----|
#- 14. NODE GROUPS:
#---1----|----2----|----3----|----4----|----5----|----6----|----7----|----8----|----9----|---10----|
/GRNOD/NODE/7
NULL
         5
#---1----|----2----|----3----|----4----|----5----|----6----|----7----|----8----|----9----|---10----|
/GRNOD/NODE/8
NULL
         1      3650
#---1----|----2----|----3----|----4----|----5----|----6----|----7----|----8----|----9----|---10----|
#- 15. TIME HISTORIES:
#---1----|----2----|----3----|----4----|----5----|----6----|----7----|----8----|----9----|---10----|
/TH/INTER/1
TH INTER
#     var1      var2      var3      var4      var5      var6      var7      var8      var9     var10
DEF       
#     Obj1      Obj2      Obj3      Obj4      Obj5      Obj6      Obj7      Obj8      Obj9     Obj10
         1
#---1----|----2----|----3----|----4----|----5----|----6----|----7----|----8----|----9----|---10----|
/END
#---1----|----2----|----3----|----4----|----5----|----6----|----7----|----8----|----9----|---10----|
