#RADIOSS STARTER
/BEGIN
MULTI_INPUT_RANDOM
      2022         0
                  Mg                  mm                   s
                  Mg                  mm                   s
/NODE
#   node_ID                   X                   Y                   Z
         1                 0.0                 0.0                 0.0
         2                 0.0                 0.0                 1.0
         3                 0.0                 1.0                 0.0
         4                 0.0                 1.0                 1.0
         5                 1.0                 0.0                 0.0
         6                 1.0                 0.0                 1.0
         7                 1.0                 1.0                 0.0
         8                 1.0                 1.0                 1.0
         9                 2.0                 0.0                 0.0
        10                 2.0                 0.0                 1.0
        11                 2.0                 1.0                 0.0
        12                 2.0                 1.0                 1.0
        13                 3.0                 0.0                 0.0
        14                 3.0                 0.0                 1.0
        15                 3.0                 1.0                 0.0
        16                 3.0                 1.0                 1.0
        17                 4.0                 0.0                 0.0
        18                 4.0                 0.0                 1.0
        19                 4.0                 1.0                 0.0
        20                 4.0                 1.0                 1.0
# ... 8 like lines cut
/BRICK/1
         1         1         5         7         3         2         6         8         4
         2         5         9        11         7         6        10        12         8
         3         9        13        15        11        10        14        16        12
         4        13        17        19        15        14        18        20        16
         5        17        21        23        19        18        22        24        20
         6        21        25        27        23        22        26        28        24
/PART/1
cantilever
         1         1
/MAT/LAW1/1
steel elastic
             7.8e-06
               210.0                 0.3
/PROP/SOLID/1
solid
         1
                 1.1                0.05                 0.1
          
/GRNOD/NODE/1
root
         1         2         3         4
/BCS/1
clamped root
   111 111         0         1
/FUNCT/1
input-1 pattern (z)
                 0.0                 1.0
            100000.0                 1.0
/FUNCT/2
input-2 pattern (y)
                 0.0                 1.0
            100000.0                 1.0
/FUNCT/10
input-1 auto-PSD G1(f)
                 0.0                 2.0
            100000.0                 2.0
/FUNCT/11
input-2 auto-PSD G2(f)
                 0.0                 1.5
            100000.0                 1.5
/GRNOD/NODE/10
tipn0
        25
/CLOAD/20
z-load (input 1)
         1         Z                            10                                           2.5e-05
/CLOAD/21
y-load (input 2)
         2         Y                            10                                          1.75e-05
/GRNOD/NODE/11
tipn1
        26
/CLOAD/22
z-load (input 1)
         1         Z                            11                                           2.5e-05
/CLOAD/23
y-load (input 2)
         2         Y                            11                                          1.75e-05
/GRNOD/NODE/12
tipn2
        27
/CLOAD/24
z-load (input 1)
         1         Z                            12                                           2.5e-05
/CLOAD/25
y-load (input 2)
         2         Y                            12                                          1.75e-05
/GRNOD/NODE/13
tipn3
        28
/CLOAD/26
z-load (input 1)
         1         Z                            13                                           2.5e-05
/CLOAD/27
y-load (input 2)
         2         Y                            13                                          1.75e-05
/END
