#RADIOSS STARTER
/BEGIN
JOINT_EVOLUTIONARY_FATIGUE - solid-brick cantilever, evolving tensor (pyradioss /IMPL/FATIG/MULT/EVOL/JOINT)
/NODE
         1        0.0000000000        0.0000000000        0.0000000000
         2        0.0000000000        0.0000000000        1.0000000000
         3        0.0000000000        2.0000000000        0.0000000000
         4        0.0000000000        2.0000000000        1.0000000000
         5        1.0000000000        0.0000000000        0.0000000000
         6        1.0000000000        0.0000000000        1.0000000000
         7        1.0000000000        2.0000000000        0.0000000000
         8        1.0000000000        2.0000000000        1.0000000000
         9        2.0000000000        0.0000000000        0.0000000000
        10        2.0000000000        0.0000000000        1.0000000000
        11        2.0000000000        2.0000000000        0.0000000000
        12        2.0000000000        2.0000000000        1.0000000000
        13        3.0000000000        0.0000000000        0.0000000000
        14        3.0000000000        0.0000000000        1.0000000000
        15        3.0000000000        2.0000000000        0.0000000000
        16        3.0000000000        2.0000000000        1.0000000000
        17        4.0000000000        0.0000000000        0.0000000000
        18        4.0000000000        0.0000000000        1.0000000000
        19        4.0000000000        2.0000000000        0.0000000000
        20        4.0000000000        2.0000000000        1.0000000000
# ... 16 like lines cut
/BRICK/1
         1         1         5         7         3         2         6         8         4
         2         5         9        11         7         6        10        12         8
         3         9        13        15        11        10        14        16        12
         4        13        17        19        15        14        18        20        16
         5        17        21        23        19        18        22        24        20
         6        21        25        27        23        22        26        28        24
         7        25        29        31        27        26        30        32        28
         8        29        33        35        31        30        34        36        32
/PART/1
cantilever
         1         1
/MAT/LAW1/1
steel elastic
   7.8e-06
     210.0       0.3
/PROP/SOLID/1
solid
         0
/GRNOD/NODE/1
root
1
2
3
4
/BCS/1
clamped root
       111       111         0         1
/FUNCT/1
unit pattern curve
       0.0           1.0
  100000.0           1.0
/FUNCT/10
flat input PSD S_ff(f)
       0.0             1
  100000.0             1
/FUNCT/20
RMS mission profile (run-up / dwell / run-down)
       0.0       0.4
     150.0       1.5
     350.0       1.5
     500.0       0.3
/GRNOD/NODE/10
tipn0
33
/CLOAD/10
fy
         1         Y        10       1e-05
/CLOAD/11
fz
         1         Z        10     3.5e-05
/GRNOD/NODE/11
tipn1
34
/CLOAD/12
fy
         1         Y        11       1e-05
/CLOAD/13
fz
         1         Z        11     3.5e-05
/GRNOD/NODE/12
tipn2
35
/CLOAD/14
fy
         1         Y        12       1e-05
/CLOAD/15
fz
         1         Z        12     1.5e-05
/GRNOD/NODE/13
tipn3
36
/CLOAD/16
fy
         1         Y        13       1e-05
/CLOAD/17
fz
         1         Z        13     1.5e-05
/END
