#RADIOSS STARTER
#--------------------------------------------------------------------------------------------------|
#- RADIOSS DECK WRITTEN BY HyperCrash
#HyperCrash 2021.2 (64 bits) 
#Fri Nov 26 13:41:43 2021
#-
#-
#- DATE	Fri Nov 26 13:41:43 2021
#--------------------------------------------------------------------------------------------------|
#---1----|----2----|----3----|----4----|----5----|----6----|----7----|----8----|----9----|---10----|
/BEGIN
BLOCK_H8                                                                        
      2021         0
                  Mg                  mm                   s
                  Mg                  mm                   s
#---1----|----2----|----3----|----4----|----5----|----6----|----7----|----8----|----9----|---10----|
#-  1. CONTROL CARDS:
#---1----|----2----|----3----|----4----|----5----|----6----|----7----|----8----|----9----|---10----|
/TITLE

#---1----|----2----|----3----|----4----|----5----|----6----|----7----|----8----|----9----|---10----|
/ANALY
#    N2D3D             IPARITH      ISUB
         0                   0         0
#---1----|----2----|----3----|----4----|----5----|----6----|----7----|----8----|----9----|---10----|
/DEF_SHELL
#   ISHELL    ISMSTR    ITHICK     IPLAS   ISTRAIN                        I_SH3N     IDRIL
         0         0         0         0         0                             0         0
#---1----|----2----|----3----|----4----|----5----|----6----|----7----|----8----|----9----|---10----|
/DEF_SOLID
#  I_SOLID    ISMSTR     ICPRE             ITETRA4  ITETRA10      IMAS    IFRAME
         0         0         0                   0         0         0         0
#---1----|----2----|----3----|----4----|----5----|----6----|----7----|----8----|----9----|---10----|
/IOFLAG
#     IPRI                         IOUTP    IOUTYY   IROOTYY     IDROT
         0                             0         0         0         0
#---1----|----2----|----3----|----4----|----5----|----6----|----7----|----8----|----9----|---10----|
#-  2. MATERIALS:
#---1----|----2----|----3----|----4----|----5----|----6----|----7----|----8----|----9----|---10----|
/MAT/LAW70/1
Foam material
#              RHO_I
               1E-10
#                 EO                  NU               E_max             EPS_max     Itens
                  25                   0                2500                   0         1
#              F_cut   Ismooth     Nload   Nunload     Iflag               Shape                 Hys
                1000         1         4         0         4                   4                  .2
#  fct_IDL          Eps_._load          Fscaleload
         1                   0                   0
         2                .001                   0
         3                  .1                   0
         3                   1                   0
#fctIDTens          FscaleTens
         4                   0
#---1----|----2----|----3----|----4----|----5----|----6----|----7----|----8----|----9----|---10----|
#-  3. NODES:
#---1----|----2----|----3----|----4----|----5----|----6----|----7----|----8----|----9----|---10----|
/NODE
         9                   0                   0                   0
        10                   0                  10                   0
        11                   0                  20                   0
        12                   0                  30                   0
        13                   0                  40                   0
        14                   0                  50                   0
        15                   0                  60                   0
        16                   0                  70                   0
        17                   0                  80                   0
        18                   0                  90                   0
        19                   0                 100                   0
        20                   0                 100                  10
        21                   0                 100                  20
        22                   0                 100                  30
        23                   0                 100                  40
        24                   0                 100                  50
        25                   0                 100                  60
        26                   0                 100                  70
        27                   0                 100                  80
        28                   0                 100                  90
# ... 1317 like lines cut
#---1----|----2----|----3----|----4----|----5----|----6----|----7----|----8----|----9----|---10----|
#-  4. BOUNDARY CONDITIONS:
#---1----|----2----|----3----|----4----|----5----|----6----|----7----|----8----|----9----|---10----|
/BCS/1
Plate_lower
#  Tra rot   skew_ID  grnod_ID
   111 111         1         3
/GRNOD/NODE/3
Plate_lower
      1786
#---1----|----2----|----3----|----4----|----5----|----6----|----7----|----8----|----9----|---10----|
/BCS/2
Plate_upper
#  Tra rot   skew_ID  grnod_ID
   110 111         1         4
/GRNOD/NODE/4
Plate_upper
      2228
#---1----|----2----|----3----|----4----|----5----|----6----|----7----|----8----|----9----|---10----|
#-  5. SKEWS & FRAMES:
#---1----|----2----|----3----|----4----|----5----|----6----|----7----|----8----|----9----|---10----|
/SKEW/MOV/1
Global skew
#       N1        N2        N3        Dir
         9      1259        19X
#---1----|----2----|----3----|----4----|----5----|----6----|----7----|----8----|----9----|---10----|
/FRAME/MOV/2
Global skew
#       N1        N2        N3        Dir
         9      1259        19X
#---1----|----2----|----3----|----4----|----5----|----6----|----7----|----8----|----9----|---10----|
#-  6. PARTS:
#---1----|----2----|----3----|----4----|----5----|----6----|----7----|----8----|----9----|---10----|
/PART/1
Solid block
         1         1         0
#---1----|----2----|----3----|----4----|----5----|----6----|----7----|----8----|----9----|---10----|
# BRICK elements of /PART/1/Solid block:
#---1----|----2----|----3----|----4----|----5----|----6----|----7----|----8----|----9----|---10----|
/BRICK/1
       201        63        66        67        62       130       131       132       133
       202       130       131       132       133       134       135       136       137
       203       134       135       136       137       138       139       140       141
       204       138       139       140       141       142       143       144       145
       205       142       143       144       145       146       147       148       149
       206       146       147       148       149       150       151       152       153
       207       150       151       152       153       154       155       156       157
       208       154       155       156       157       158       159       160       161
       209       158       159       160       161       162       163       164       165
       210       162       163       164       165       166       167       168       169
       211        62        67        58        59       133       132       170       171
       212       133       132       170       171       137       136       172       173
       213       137       136       172       173       141       140       174       175
       214       141       140       174       175       145       144       176       177
       215       145       144       176       177       149       148       178       179
       216       149       148       178       179       153       152       180       181
       217       153       152       180       181       157       156       182       183
       218       157       156       182       183       161       160       184       185
       219       161       160       184       185       165       164       186       187
       220       165       164       186       187       169       168       188       189
# ... 980 like lines cut
#---1----|----2----|----3----|----4----|----5----|----6----|----7----|----8----|----9----|---10----|
#-  7. GEOMETRICAL SETS:
#---1----|----2----|----3----|----4----|----5----|----6----|----7----|----8----|----9----|---10----|
/PROP/SOLID/1
Solid
#   Isolid    Ismstr               Icpre  Itetra10     Inpts   Itetra4    Iframe                  dn
        24        -1                  -1         0         0         0        -1                   0
#                q_a                 q_b                   h            LAMBDA_V                MU_V
                   0                   0                   0                   0                   0
#             dt_min
                   0
#---1----|----2----|----3----|----4----|----5----|----6----|----7----|----8----|----9----|---10----|
#-  8. FUNCTIONS:
#---1----|----2----|----3----|----4----|----5----|----6----|----7----|----8----|----9----|---10----|
/FUNCT/1
EPP FOAM
#                  X                   Y
                   0                   0
                 .01          .158490319
                 .02          .209135911
                 .03          .245977949
                 .04          .276009932
                 .05          .301833817
                 .06          .324750222
                 .07          .345517907
                 .08          .364624841
                 .09          .382406891
                  .1          .399107171
                 .11          .414908662
                 .12          .429953474
                 .13          .444354851
                 .14           .45820502
                 .15          .471580492
                 .16          .484545774
                 .17          .497156022
                 .18          .509458996
                 .19          .521496514
# ... 81 like lines cut
#---1----|----2----|----3----|----4----|----5----|----6----|----7----|----8----|----9----|---10----|
/FUNCT/2
EPP FOAM
#                  X                   Y
                   0                   0
                 .01           .19056876
                 .02          .251966945
                 .03           .29694458
                 .04          .333861614
                 .05          .365822586
                 .06           .39437667
                 .07          .420426189
                 .08          .444550606
                 .09          .467148258
                  .1          .488507177
                 .11          .508843983
                 .12          .528326828
                 .13          .547089693
                 .14          .565241712
                 .15          .582873488
                 .16          .600061486
                 .17          .616871192
                 .18          .633359424
                 .19          .649576058
# ... 81 like lines cut
#---1----|----2----|----3----|----4----|----5----|----6----|----7----|----8----|----9----|---10----|
/FUNCT/3
EPP FOAM
#                  X                   Y
                   0                   0
                 .01          .229139877
                 .02          .303569775
                 .03          .358471496
                 .04          .403839008
                 .05          .443376974
                 .06          .478931028
                 .07          .511574586
                 .08          .541996098
                 .09          .570668312
                  .1          .597932784
                 .11          .624046261
                 .12          .649208007
                 .13           .67357683
                 .14          .697282177
                 .15          .720431631
                 .16          .743116144
                 .17          .765413776
                 .18          .787392436
                 .19          .809111937
# ... 81 like lines cut
#---1----|----2----|----3----|----4----|----5----|----6----|----7----|----8----|----9----|---10----|
/FUNCT/4
EPP FOAM
#                  X                   Y
                  -1                   1
                   0                   1
                 .01           .99999369
                 .02          .999961747
                 .03          .999890234
                 .04          .999768124
                 .05          .999585865
                 .06          .999334873
                 .07          .999007287
                 .08          .998595817
                 .09          .998093654
                  .1          .997494407
                 .11          .996792065
                 .12           .99598096
                 .13          .995055753
                 .14          .994011414
                 .15          .992843215
                 .16          .991546722
                 .17           .99011779
                 .18          .988552563
# ... 82 like lines cut
#---1----|----2----|----3----|----4----|----5----|----6----|----7----|----8----|----9----|---10----|
/FUNCT_SMOOTH/10
Plate_upper
#            Ascalex             Fscaley             Ashiftx             Fshifty 
                   0                   0                   0                   0
#                  X                   Y
                   0                   0
                  .1                 -95
                  .2                   0
#---1----|----2----|----3----|----4----|----5----|----6----|----7----|----8----|----9----|---10----|
#-  9. RIGID BODIES:
#---1----|----2----|----3----|----4----|----5----|----6----|----7----|----8----|----9----|---10----|
/RBODY/1
Plate_lower
#     RBID     ISENS     NSKEW    ISPHER                MASS   Gnod_id     IKREM      ICOG   Surf_id
      1786         0         0         1                   0         1         0         0         0
#                Jxx                 Jyy                 Jzz
                   0                   0                   0
#                Jxy                 Jyz                 Jxz
                   0                   0                   0
#  Ioptoff               Ifail
         0         0         0
/GRNOD/BOX/1
Plate_lower
         1
/BOX/RECTA/1
Box Plate_lower
#       N1        N2     ISKEW                                                                 ITYPE
      2300      2301         1                                                                     0
#                XP1                 YP1                 ZP1
                   0                   0                   0
#                XP2                 YP2                 ZP2
                   0                   0                   0
#---1----|----2----|----3----|----4----|----5----|----6----|----7----|----8----|----9----|---10----|
/RBODY/2
Plate_upper
#     RBID     ISENS     NSKEW    ISPHER                MASS   Gnod_id     IKREM      ICOG   Surf_id
      2228         0         1         1                   0         2         0         0         0
#                Jxx                 Jyy                 Jzz
                   0                   0                   0
#                Jxy                 Jyz                 Jxz
                   0                   0                   0
#  Ioptoff               Ifail
         0         0         0
/GRNOD/BOX/2
Plate_upper
         2
/BOX/RECTA/2
Plate_upper
#       N1        N2     ISKEW                                                                 ITYPE
      2302      2303         1                                                                     0
#                XP1                 YP1                 ZP1
                   0                   0                   0
#                XP2                 YP2                 ZP2
                   0                   0                   0
#---1----|----2----|----3----|----4----|----5----|----6----|----7----|----8----|----9----|---10----|
#- 10. IMPOSED DISPLACEMENTS:
#---1----|----2----|----3----|----4----|----5----|----6----|----7----|----8----|----9----|---10----|
/IMPDISP/1
Plate_upper
#   Ifunct       DIR     Iskew   Isensor   Gnod_id     Frame     Icoor
        10         Z         1         0         5         0         0
#            Scale_x             Scale_y              Tstart               Tstop
                   0                   0                   0                   0
/GRNOD/NODE/5
Plate_upper
      2228
#---1----|----2----|----3----|----4----|----5----|----6----|----7----|----8----|----9----|---10----|
#- 11. TIME HISTORIES:
#---1----|----2----|----3----|----4----|----5----|----6----|----7----|----8----|----9----|---10----|
/TH/RBODY/1
Rbodies
#     var1      var2      var3      var4      var5      var6      var7      var8      var9     var10
DEF       
#     Obj1      Obj2      Obj3      Obj4      Obj5      Obj6      Obj7      Obj8      Obj9     Obj10
         1         2
#---1----|----2----|----3----|----4----|----5----|----6----|----7----|----8----|----9----|---10----|
/TH/NODE/2
Nodes
#     var1      var2      var3      var4      var5      var6      var7      var8      var9     var10
DEF       
#    NODid     Iskew                                           NODname
      1786         2Plate_lower                                                                     
      2228         2Plate_upper                                                                     
#---1----|----2----|----3----|----4----|----5----|----6----|----7----|----8----|----9----|---10----|
/TH/PART/4
TH PART
#     var1      var2      var3      var4      var5      var6      var7      var8      var9     var10
DEF       
#     Obj1      Obj2      Obj3      Obj4      Obj5      Obj6      Obj7      Obj8      Obj9     Obj10
         1
#---1----|----2----|----3----|----4----|----5----|----6----|----7----|----8----|----9----|---10----|
/END
#---1----|----2----|----3----|----4----|----5----|----6----|----7----|----8----|----9----|---10----|
