/BEGIN
m40 wedge
/NODE
1 0 0 0
3 1 1 0
4 0 1 0
5 0 0 1
7 1 1 1
8 0 1 1
/BRICK/1
1 1 1 3 4 5 5 7 8
/PART/1
wedge
1 1
/MAT/LAW1/1
steel
7.8e-6
210. 0.3
/PROP/SOLID/1
solid
1.1 0.05 0.1
/GRNOD/NODE/1
bottom
1 3 4
/GRNOD/NODE/2
top
5 7 8
/BCS/1
fix bottom
111 111 0 1
/IMPVEL/1
push z
1 Z 2 1.0
/FUNCT/1
const
0.0 1.0
10.0 1.0
/END
