/BEGIN
tetra
/NODE
1 0 0 0
2 10 0 0
3 0 10 0
4 0 0 10
/TETRA4/1
1 1 2 3 4
/PART/1
part
100001 1
/MAT/LAW1/1
mat
1.0
221.0 0.3
/PROP/SOLID/1
prop
/END