#RADIOSS STARTER
/BEGIN
SPECTRAL_NONPROPORTIONAL_FATIGUE
      2022         0
                  Mg                  mm                   s
                  Mg                  mm                   s
/NODE
#   node_ID                   X                   Y                   Z
         1                 0.0                 0.0                 0.0
         2                 0.0                 0.0                 2.0
         3                 0.0                 1.0                 0.0
         4                 0.0                 1.0                 2.0
         5                 1.0                 0.0                 0.0
         6                 1.0                 0.0                 2.0
         7                 1.0                 1.0                 0.0
         8                 1.0                 1.0                 2.0
         9                 2.0                 0.0                 0.0
        10                 2.0                 0.0                 2.0
        11                 2.0                 1.0                 0.0
        12                 2.0                 1.0                 2.0
        13                 3.0                 0.0                 0.0
        14                 3.0                 0.0                 2.0
        15                 3.0                 1.0                 0.0
        16                 3.0                 1.0                 2.0
        17                 4.0                 0.0                 0.0
        18                 4.0                 0.0                 2.0
        19                 4.0                 1.0                 0.0
        20                 4.0                 1.0                 2.0
# ... 8 like lines cut
/BRICK/1
         1         1         5         7         3         2         6         8         4
         2         5         9        11         7         6        10        12         8
         3         9        13        15        11        10        14        16        12
         4        13        17        19        15        14        18        20        16
         5        17        21        23        19        18        22        24        20
         6        21        25        27        23        22        26        28        24
/PART/1
cantilever
         1         1
/MAT/LAW1/1
steel elastic
             7.8e-06
               210.0                 0.3
/PROP/SOLID/1
solid
         1
                 1.1                0.05                 0.1
          
/GRNOD/NODE/1
root
         1         2         3         4
/BCS/1
clamped root
   111 111         0         1
/FUNCT/1
unit pattern curve
                 0.0                 1.0
            100000.0                 1.0
/FUNCT/10
flat input PSD S_ff(f)
                 0.0                 1.0
            100000.0                 1.0
/GRNOD/NODE/10
tipn0
        25
/CLOAD/10
fy
         1         Y                            10                                           2.5e-05
/CLOAD/11
fz
         1         Z                            10                                           2.5e-05
/GRNOD/NODE/11
tipn1
        26
/CLOAD/12
fy
         1         Y                            11                                           2.5e-05
/CLOAD/13
fz
         1         Z                            11                                           2.5e-05
/GRNOD/NODE/12
tipn2
        27
/CLOAD/14
fy
         1         Y                            12                                           2.5e-05
/CLOAD/15
fz
         1         Z                            12                                           2.5e-05
/GRNOD/NODE/13
tipn3
        28
/CLOAD/16
fy
         1         Y                            13                                           2.5e-05
/CLOAD/17
fz
         1         Z                            13                                           2.5e-05
/END
