/BEGIN
rigid impactor drop on a shell panel (M5 example)
/NODE
1 0 0 0
2 2 0 0
3 4 0 0
4 6 0 0
5 8 0 0
6 10 0 0
7 12 0 0
8 14 0 0
9 16 0 0
10 18 0 0
11 20 0 0
12 0 2 0
13 2 2 0
14 4 2 0
15 6 2 0
16 8 2 0
17 10 2 0
18 12 2 0
19 14 2 0
20 16 2 0
# ... 150 like lines cut
/SHELL/1
1 1 2 13 12
2 2 3 14 13
3 3 4 15 14
4 4 5 16 15
5 5 6 17 16
6 6 7 18 17
7 7 8 19 18
8 8 9 20 19
9 9 10 21 20
10 10 11 22 21
11 12 13 24 23
12 13 14 25 24
13 14 15 26 25
14 15 16 27 26
15 16 17 28 27
16 17 18 29 28
17 18 19 30 29
18 19 20 31 30
19 20 21 32 31
20 21 22 33 32
# ... 80 like lines cut
/BRICK/2
101 1000 1001 1005 1004 1016 1017 1021 1020
102 1001 1002 1006 1005 1017 1018 1022 1021
103 1002 1003 1007 1006 1018 1019 1023 1022
104 1004 1005 1009 1008 1020 1021 1025 1024
105 1005 1006 1010 1009 1021 1022 1026 1025
106 1006 1007 1011 1010 1022 1023 1027 1026
107 1008 1009 1013 1012 1024 1025 1029 1028
108 1009 1010 1014 1013 1025 1026 1030 1029
109 1010 1011 1015 1014 1026 1027 1031 1030
110 1016 1017 1021 1020 1032 1033 1037 1036
111 1017 1018 1022 1021 1033 1034 1038 1037
112 1018 1019 1023 1022 1034 1035 1039 1038
113 1020 1021 1025 1024 1036 1037 1041 1040
114 1021 1022 1026 1025 1037 1038 1042 1041
115 1022 1023 1027 1026 1038 1039 1043 1042
116 1024 1025 1029 1028 1040 1041 1045 1044
117 1025 1026 1030 1029 1041 1042 1046 1045
118 1026 1027 1031 1030 1042 1043 1047 1046
/PART/1
panel
1 1
/PART/2
impactor
2 1
/MAT/LAW1/1
aluminium
2.7e-6
70. 0.33
/PROP/SHELL/1
panel t=0.5
1 0 0 0
0.01 0.01 0.01 0 0
3 0 0.5
/PROP/SOLID/2
impactor bricks
1.1 0.05 0.1
/GRNOD/PART/10
impactor nodes
2
/GRNOD/NODE/11
clamped border
1 2 3 4 5 6 7 8 9 10 11 12 22 23 33 34 44 45 55 56 66 67 77 78 88 89 99 100 110 111 112 113 114 115 116 117 118 119 120 121
/GRNOD/NODE/12
section side: upper half of the panel
56 57 58 59 60 61 62 63 64 65 66 67 68 69 70 71 72 73 74 75 76 77 78 79 80 81 82 83 84 85 86 87 88 89 90 91 92 93 94 95 96 97 98 99 100 101 102 103 104 105 106 107 108 109 110 111 112 113 114 115 116 117 118 119 120 121
/GRNOD/NODE/13
impactor master
9999
/BCS/1
clamp panel border
111 111 0 11
/RBODY/1
rigid impactor block
9999 10 2.0e-3 1
/INIVEL/TRA/1
impactor falls at 2 mm/ms
0 0 -2.0 10
/FUNCT/1
constant
0.0 1.0
100.0 1.0
/GRAV/1
gravity (mm/ms^2)
1 Z 0 -9.81e-3
/SURF/PART/1
panel surface
1
/INTER/TYPE7/1
impactor vs panel
10 1 2 1
1.0 0.1 0.0
/SECT/1
panel mid-section (upper half is the side set)
12
/TH/SECT/1
section resultants
DEF
1
/TH/NODE/1
impactor master motion
DZ VZ
9999
/END
