#RADIOSS STARTER
/BEGIN
TENSILE
      2022         0
                  Mg                  mm                   s
                  Mg                  mm                   s
/NODE
#   node_ID                   X                   Y                   Z
         1                 0.0                 0.0                 0.0
         2                 1.0                 0.0                 0.0
         3                 2.0                 0.0                 0.0
         4                 3.0                 0.0                 0.0
         5                 4.0                 0.0                 0.0
         6                 5.0                 0.0                 0.0
         7                 6.0                 0.0                 0.0
         8                 7.0                 0.0                 0.0
         9                 8.0                 0.0                 0.0
        10                 9.0                 0.0                 0.0
        11                10.0                 0.0                 0.0
        12                 0.0                 1.0                 0.0
        13                 1.0                 1.0                 0.0
        14                 2.0                 1.0                 0.0
        15                 3.0                 1.0                 0.0
        16                 4.0                 1.0                 0.0
        17                 5.0                 1.0                 0.0
        18                 6.0                 1.0                 0.0
        19                 7.0                 1.0                 0.0
        20                 8.0                 1.0                 0.0
# ... 79 like lines cut
/BRICK/1
         1         1         2        13        12        34        35        46        45
         2         2         3        14        13        35        36        47        46
         3         3         4        15        14        36        37        48        47
         4         4         5        16        15        37        38        49        48
         5         5         6        17        16        38        39        50        49
         6         6         7        18        17        39        40        51        50
         7         7         8        19        18        40        41        52        51
         8         8         9        20        19        41        42        53        52
         9         9        10        21        20        42        43        54        53
        10        10        11        22        21        43        44        55        54
        11        12        13        24        23        45        46        57        56
        12        13        14        25        24        46        47        58        57
        13        14        15        26        25        47        48        59        58
        14        15        16        27        26        48        49        60        59
        15        16        17        28        27        49        50        61        60
        16        17        18        29        28        50        51        62        61
        17        18        19        30        29        51        52        63        62
        18        19        20        31        30        52        53        64        63
        19        20        21        32        31        53        54        65        64
        20        21        22        33        32        54        55        66        65
# ... 20 like lines cut
/PART/1
steel bar
         1         1
/MAT/LAW2/1
steel Johnson-Cook
             7.8e-06
               210.0                 0.3
                 0.4                 0.5                 0.5                 0.0                 0.0
          
          
/PROP/SOLID/1
default solid
         1
                 1.1                0.05                 0.1
          
/GRNOD/NODE/1
clamped face x=0
         1        12        23        34        45        56        67        78        89
/GRNOD/NODE/2
pulled face x=L
        11        22        33        44        55        66        77        88        99
/BCS/1
clamp x=0
   111 111         0         1
/FUNCT/1
velocity ramp 0 -> 1 mm/ms at t=0.02, then constant
                 0.0                 0.0
                0.02                 1.0
               100.0                 1.0
/IMPVEL/1
pull face x=L in X
# funct_IDT       Dir   skew_ID sensor_ID  grnod_ID  frame_ID     Icoor
         1         X                             2
                 1.0                 1.0
/TH/NODE/1
pulled corner node
DX        VX        
        11
/TH/PART/2
bar energies
IE        KE        
         1
/END
