#RADIOSS STARTER
##========================================================================================
##
## Radioss Input Deck Generated by HyperMesh Version  : 2022.2.0.27
## Generated using HyperMesh-Radioss Template Version : 2022.2.0.27
## Date: 03-13-2023   Time: 15:39:15
##
##========================================================================================
##
##--------------------------------------------------------------------------------------------------
#--------------------------------------------------------------------------------------------------|
#- RADIOSS DECK WRITTEN BY HyperCrash
#HyperCrash 2017 (64 bits) 
#Mon Jan 15 06:31:18 2018
#-
#
#
#-
#- DATE	Mon Jan 15 06:31:18 2018
#--------------------------------------------------------------------------------------------------|
##
/BEGIN
#Runname                                                                        
TACEUL                                                                          
#   Invers      Irun
      2023         0
#    Input_mass_unit   Input_length_unit     Input_time_unit
                  kg                   m                   s
#     Work_mass_unit    Work_length_unit      Work_time_unit
                  kg                   m                   s
#---1----|----2----|----3----|----4----|----5----|----6----|----7----|----8----|----9----|---10----|
/TITLE
EULER                                                                                                                          
#---1----|----2----|----3----|----4----|----5----|----6----|----7----|----8----|----9----|---10----|
##
#---1----|----2----|----3----|----4----|----5----|----6----|----7----|----8----|----9----|---10----|
/NODE
#  node_ID                  Xc                  Yc                  Zc
         1                 0.0                 0.0                 0.0
         2               0.005                 0.0                 0.0
         3                 0.0               0.005                 0.0
         4               0.005               0.005                 0.0
         5                 0.0                0.01                 0.0
         6               0.005                0.01                 0.0
         7                 0.0               0.015                 0.0
         8               0.005               0.015                 0.0
         9                 0.0                0.02                 0.0
        10               0.005                0.02                 0.0
        11                 0.0               0.025                 0.0
        12               0.005               0.025                 0.0
        13                 0.0                0.03                 0.0
        14               0.005                0.03                 0.0
        15                 0.0               0.035                 0.0
        16               0.005               0.035                 0.0
        17                 0.0                0.04                 0.0
        18               0.005                0.04                 0.0
        19                 0.0               0.045                 0.0
        20               0.005               0.045                 0.0
# ... 784 like lines cut
#---1----|----2----|----3----|----4----|----5----|----6----|----7----|----8----|----9----|---10----|
/BRICK/1
# brick_ID  node_ID1  node_ID2  node_ID3  node_ID4  node_ID5  node_ID6  node_ID7  node_ID8
         1         1         2         4         3       403       404       406       405
         2         3         4         6         5       405       406       408       407
         3         5         6         8         7       407       408       410       409
         4         7         8        10         9       409       410       412       411
         5         9        10        12        11       411       412       414       413
         6        11        12        14        13       413       414       416       415
         7        13        14        16        15       415       416       418       417
         8        15        16        18        17       417       418       420       419
         9        17        18        20        19       419       420       422       421
        10        19        20        22        21       421       422       424       423
        11        21        22        24        23       423       424       426       425
        12        23        24        26        25       425       426       428       427
        13        25        26        28        27       427       428       430       429
        14        27        28        30        29       429       430       432       431
        15        29        30        32        31       431       432       434       433
        16        31        32        34        33       433       434       436       435
        17        33        34        36        35       435       436       438       437
        18        35        36        38        37       437       438       440       439
        19        37        38        40        39       439       440       442       441
        20        39        40        42        41       441       442       444       443
# ... 80 like lines cut
/BRICK/2
# brick_ID  node_ID1  node_ID2  node_ID3  node_ID4  node_ID5  node_ID6  node_ID7  node_ID8
       101       201       202       204       203       603       604       606       605
       102       203       204       206       205       605       606       608       607
       103       205       206       208       207       607       608       610       609
       104       207       208       210       209       609       610       612       611
       105       209       210       212       211       611       612       614       613
       106       211       212       214       213       613       614       616       615
       107       213       214       216       215       615       616       618       617
       108       215       216       218       217       617       618       620       619
       109       217       218       220       219       619       620       622       621
       110       219       220       222       221       621       622       624       623
       111       221       222       224       223       623       624       626       625
       112       223       224       226       225       625       626       628       627
       113       225       226       228       227       627       628       630       629
       114       227       228       230       229       629       630       632       631
       115       229       230       232       231       631       632       634       633
       116       231       232       234       233       633       634       636       635
       117       233       234       236       235       635       636       638       637
       118       235       236       238       237       637       638       640       639
       119       237       238       240       239       639       640       642       641
       120       239       240       242       241       641       642       644       643
# ... 80 like lines cut
#---1----|----2----|----3----|----4----|----5----|----6----|----7----|----8----|----9----|---10----|
##HWCOLOR components 1 4
/PART/1
#part_title                                                                                         
Gas 1                                                                                               
#  prop_ID    mat_ID                         Thick
         1         3                              
#---1----|----2----|----3----|----4----|----5----|----6----|----7----|----8----|----9----|---10----|
##HWCOLOR components 2 5
/PART/2
#part_title                                                                                         
Gas 2                                                                                               
#  prop_ID    mat_ID                         Thick
         1         4                              
#---1----|----2----|----3----|----4----|----5----|----6----|----7----|----8----|----9----|---10----|
##HWCOLOR materials 1 3
/MAT/HYD_VISC/1
Gas 1                                                                                               
#              RHO_I
              5.7487
#                 Nu                Pmin
                 0.0                 0.0
/EOS/POLYNOMIAL/1
Gas 1                                                                                               
#                 C0                  C1                  C2                  C3
                 0.0                 0.0                 0.0                 0.0
#                 C4                  C5                  E0                P_sh               RHO_0
                 0.4                 0.4           1250000.0                 0.0                    
#---1----|----2----|----3----|----4----|----5----|----6----|----7----|----8----|----9----|---10----|
##HWCOLOR materials 2 4
/MAT/HYD_VISC/2
Gas 2                                                                                               
#              RHO_I
             0.22995
#                 Nu                Pmin
                 0.0                 0.0
/EOS/POLYNOMIAL/2
Gas 2                                                                                               
#                 C0                  C1                  C2                  C3
                 0.0                 0.0                 0.0                 0.0
#                 C4                  C5                  E0                P_sh               RHO_0
                 0.4                 0.4             50000.0                 0.0                    
#---1----|----2----|----3----|----4----|----5----|----6----|----7----|----8----|----9----|---10----|
##HWCOLOR materials 3 5
/MAT/LAW151/3
Gas 1 - LAW151                                                                                      

#   mat_ID            Vol_frac
         1                 1.0
#   mat_ID            Vol_frac
         2                 0.0
#---1----|----2----|----3----|----4----|----5----|----6----|----7----|----8----|----9----|---10----|
##HWCOLOR materials 4 6
/MAT/LAW151/4
Gas 2 - LAW151                                                                                      

#   mat_ID            Vol_frac
         1                 0.0
#   mat_ID            Vol_frac
         2                 1.0
#---1----|----2----|----3----|----4----|----5----|----6----|----7----|----8----|----9----|---10----|
#                q_a                 q_b                   h            LAMBDA_V                MU_V
#             dt_min   istrain      IHKT
##HWCOLOR properties 1 3
/PROP/SOLID/1
Gas                                                                                                 
#   Isolid    Ismstr               Icpre  Itetra10     Inpts   Itetra4    Iframe                  Dn
         0         0        2                                        0                              
#                 qa                  qb                   h              Lambda                  Mu
                 0.0                 0.0
#         deltaT_min
                 0.0
#---1----|----2----|----3----|----4----|----5----|----6----|----7----|----8----|----9----|---10----|
##HMNAME LOADCOLS          1misc1                                                                   
##HWCOLOR loadcollectors 1 11
/BCS/1
FIXED                                                                                               
#  Tra rot   skew_ID  grnod_ID
   111 000         0         1
#---1----|----2----|----3----|----4----|----5----|----6----|----7----|----8----|----9----|---10----|
##HMNAME LOADCOLS          1misc1                                                                   
##HWCOLOR loadcollectors 1 11
/BCS/2
FREE Y                                                                                              
#  Tra rot   skew_ID  grnod_ID
   101 000         0         2
#---1----|----2----|----3----|----4----|----5----|----6----|----7----|----8----|----9----|---10----|
/GRNOD/NODE/1
#title                                                                                              
FIXED                                                                                               
# item_ID1  item_ID2  item_ID3  item_ID4  item_ID5  item_ID6  item_ID7  item_ID8  item_ID9 item_ID10
         1         2       401       402       403       404       803       804
#---1----|----2----|----3----|----4----|----5----|----6----|----7----|----8----|----9----|---10----|
/GRNOD/NODE/2
#title                                                                                              
FREE Y                                                                                              
# item_ID1  item_ID2  item_ID3  item_ID4  item_ID5  item_ID6  item_ID7  item_ID8  item_ID9 item_ID10
         3         4         5         6         7         8         9        10        11        12
        13        14        15        16        17        18        19        20        21        22
        23        24        25        26        27        28        29        30        31        32
        33        34        35        36        37        38        39        40        41        42
        43        44        45        46        47        48        49        50        51        52
        53        54        55        56        57        58        59        60        61        62
        63        64        65        66        67        68        69        70        71        72
        73        74        75        76        77        78        79        80        81        82
        83        84        85        86        87        88        89        90        91        92
        93        94        95        96        97        98        99       100       101       102
       103       104       105       106       107       108       109       110       111       112
       113       114       115       116       117       118       119       120       121       122
       123       124       125       126       127       128       129       130       131       132
       133       134       135       136       137       138       139       140       141       142
       143       144       145       146       147       148       149       150       151       152
       153       154       155       156       157       158       159       160       161       162
       163       164       165       166       167       168       169       170       171       172
       173       174       175       176       177       178       179       180       181       182
       183       184       185       186       187       188       189       190       191       192
       193       194       195       196       197       198       199       200       201       202
# ... 60 like lines cut
#---1----|----2----|----3----|----4----|----5----|----6----|----7----|----8----|----9----|---10----|
/TH/BRIC/2
#thgroup_name
NULL                                                                                                
#  var_ID1   var_ID2   var_ID3   var_ID4   var_ID5   var_ID6   var_ID7   var_ID8   var_ID9  var_ID10
DEF       
#  elem_ID                                                   elem_name
        10                                                                                          
        20                                                                                          
        30                                                                                          
        40                                                                                          
        50                                                                                          
        60                                                                                          
        70                                                                                          
        80                                                                                          
        90                                                                                          
       100                                                                                          
       110                                                                                          
       120                                                                                          
       130                                                                                          
       140                                                                                          
       150                                                                                          
       160                                                                                          
       170                                                                                          
       180                                                                                          
       190                                                                                          
       200                                                                                          
#---1----|----2----|----3----|----4----|----5----|----6----|----7----|----8----|----9----|---10----|
#     Obj1      Obj2      Obj3      Obj4      Obj5      Obj6      Obj7      Obj8      Obj9     Obj10
#     Elid                                                      Elname
/TH/PART/1
#thgroup_name
Part selection                                                                                      
#  var_ID1   var_ID2   var_ID3   var_ID4   var_ID5   var_ID6   var_ID7   var_ID8   var_ID9  var_ID10
DEF       
#  Obj_ID1   Obj_ID2   Obj_ID3   Obj_ID4   Obj_ID5   Obj_ID6   Obj_ID7   Obj_ID8   Obj_ID9  Obj_ID10
         1         2
##--------------------------------------------------------------------------------------------------
## End Of Radioss Block Deck
##--------------------------------------------------------------------------------------------------
/END
##<?xml version="1.0" encoding="utf-8"?>
##<Altair_XML_Export>
##    <UDM xmlns:SOAP-ENV="http://schemas.xmlsoap.org/soap/envelope/" xmlns:SOAP-ENC="http://schemas.xmlsoap.org/soap/encoding/" xmlns:xsi="http://www.w3.org/2001/XMLSchema-instance" xmlns:xsd="http://www.w3.org/2001/XMLSchema" xmlns:udmcfg="http://schemas.altair.com/AltairUDMRuntimeConfig" xmlns:udmxml="http://schemas.altair.com/AltairUDM" xmlns:importrules="http://schemas.altair.com/hsm/importru
##        <udmxml:EntityCollection xsi:type="udmxml:EntityCollectionCType">
##            <udmxml:Entity xsi:type="udmxml:AssemblyDMCType" displayName="HW_Assembly" contentDefinitionType="UDMAssemblyDM" id="c1fab6a3b49ae343866f8b7ec0def07b:0">
##                <udmxml:Children>
##                    <udmxml:Child xsi:type="udmxml:ChildCType" refId="d74586eaf145b646bd89e1128dd57d97:0" timestamp="1678717965374353" childFlags="0" groupName="boas" contentDefinitionType="UDMBOA"/>
##                </udmxml:Children>
##            </udmxml:Entity>
##            <udmxml:Entity xsi:type="udmxml:BOACType" displayName="hm0" contentDefinitionType="UDMBOA" id="d74586eaf145b646bd89e1128dd57d97:0">
##                <udmxml:Children>
##                    <udmxml:Child xsi:type="udmxml:ChildCType" refId="536e35b40c923b458617042ea29edede:0" timestamp="1678717965375474" childFlags="0" groupName="parts" contentDefinitionType="UDMPartProtoOcc">
##                        <AdditionalIdList xsi:type="udmxml:AdditionalIdCType" xmlns="http://schemas.altair.com/AltairUDM" keyValue="Model" keyName="displayname" contentDefinitionType="UDMPartProtoOcc"/>
##                    </udmxml:Child>
##                </udmxml:Children>
##            </udmxml:Entity>
##            <udmxml:Entity xsi:type="udmxml:PartCType" displayName="Gas.p" contentDefinitionType="UDMPartProto" id="8422596e28a46f4aaef452941d5c1b83:0">
##                <udmxml:Attributes>
##                    <udmxml:Attribute xsi:type="udmxml:AttributeCType" valueutf8="-" type="string" name="studyrevision" displayName="STUDY_REVISION">-</udmxml:Attribute>
##                    <udmxml:Attribute xsi:type="udmxml:AttributeCType" valueutf8="Gas" type="string" name="HW_UID">Gas</udmxml:Attribute>
##                    <udmxml:Attribute xsi:type="udmxml:AttributeCType" valueutf8="-" type="string" name="PLMXML_PRODUCTREVISION_REVISION">-</udmxml:Attribute>
##                </udmxml:Attributes>
##            </udmxml:Entity>
##            <udmxml:Entity xsi:type="udmxml:PartCType" displayName="TACEUL_0000.rad.p" contentDefinitionType="UDMPartProto" id="3a6d4aff90b57f46acaaff6b77d97a49:0">
##                <udmxml:Attributes>
##                    <udmxml:Attribute xsi:type="udmxml:AttributeCType" valueutf8="-" type="string" name="studyrevision" displayName="STUDY_REVISION">-</udmxml:Attribute>
##                    <udmxml:Attribute xsi:type="udmxml:AttributeCType" valueutf8="TACEUL_0000.rad" type="string" name="HW_UID">TACEUL_0000.rad</udmxml:Attribute>
##                    <udmxml:Attribute xsi:type="udmxml:AttributeCType" valueutf8="-" type="string" name="PLMXML_PRODUCTREVISION_REVISION">-</udmxml:Attribute>
##                </udmxml:Attributes>
##                <udmxml:Children>
##                    <udmxml:Child xsi:type="udmxml:ChildCType" refId="018c2bb0c317414781c64b0163806189:0" timestamp="1678717969293044" childFlags="0" groupName="partprotoinst" contentDefinitionType="UDMPartProtoInst"/>
##                    <udmxml:Child xsi:type="udmxml:ChildCType" refId="b37bfdee447632458f16f31136257d45:0" timestamp="1678717969293044" childFlags="0" groupName="partprotoinst" contentDefinitionType="UDMPartProtoInst"/>
##                </udmxml:Children>
##            </udmxml:Entity>
##            <udmxml:Entity xsi:type="udmxml:PartCType" displayName="Module Model.p" contentDefinitionType="UDMPartProto" id="ea86f237e6f62d4185bd86a5004c1b0e:0">
##                <udmxml:Children>
##                    <udmxml:Child xsi:type="udmxml:ChildCType" refId="4bbc93fdffe8854e955680506d3f3f7d:0" timestamp="1678717969292048" childFlags="0" groupName="partprotoinst" contentDefinitionType="UDMPartProtoInst"/>
##                </udmxml:Children>
##            </udmxml:Entity>
##            <udmxml:Entity xsi:type="udmxml:PartCType" displayName="Gas.1.p" contentDefinitionType="UDMPartProto" id="413a1e473bfda54e9804815bd1dd13f0:0">
##                <udmxml:Attributes>
##                    <udmxml:Attribute xsi:type="udmxml:AttributeCType" valueutf8="-" type="string" name="studyrevision" displayName="STUDY_REVISION">-</udmxml:Attribute>
##                    <udmxml:Attribute xsi:type="udmxml:AttributeCType" valueutf8="Gas.1" type="string" name="HW_UID">Gas.1</udmxml:Attribute>
##                    <udmxml:Attribute xsi:type="udmxml:AttributeCType" valueutf8="-" type="string" name="PLMXML_PRODUCTREVISION_REVISION">-</udmxml:Attribute>
##                </udmxml:Attributes>
##            </udmxml:Entity>
##            <udmxml:Entity xsi:type="udmxml:PartCType" displayName="Gas" contentDefinitionType="UDMPartProtoInst" id="018c2bb0c317414781c64b0163806189:0">
##                <udmxml:Children>
##                    <udmxml:Child xsi:type="udmxml:ChildCType" refId="8422596e28a46f4aaef452941d5c1b83:0" timestamp="1678717969293044" childFlags="0" groupName="partprotos" contentDefinitionType="UDMPartProto"/>
##                </udmxml:Children>
##            </udmxml:Entity>
##            <udmxml:Entity xsi:type="udmxml:PartCType" displayName="TACEUL_0000.rad" contentDefinitionType="UDMPartProtoInst" id="4bbc93fdffe8854e955680506d3f3f7d:0">
##                <udmxml:Children>
##                    <udmxml:Child xsi:type="udmxml:ChildCType" refId="3a6d4aff90b57f46acaaff6b77d97a49:0" timestamp="1678717969292048" childFlags="0" groupName="partprotos" contentDefinitionType="UDMPartProto"/>
##                </udmxml:Children>
##            </udmxml:Entity>
##            <udmxml:Entity xsi:type="udmxml:PartCType" displayName="Gas.1" contentDefinitionType="UDMPartProtoInst" id="b37bfdee447632458f16f31136257d45:0">
##                <udmxml:Children>
##                    <udmxml:Child xsi:type="udmxml:ChildCType" refId="413a1e473bfda54e9804815bd1dd13f0:0" timestamp="1678717969293044" childFlags="0" groupName="partprotos" contentDefinitionType="UDMPartProto"/>
##                </udmxml:Children>
##            </udmxml:Entity>
##            <udmxml:Entity xsi:type="udmxml:PartCType" protoInstanceRefId="018c2bb0c317414781c64b0163806189:0" prototypeRefId="8422596e28a46f4aaef452941d5c1b83:0" displayName="Gas" contentDefinitionType="UDMPartProtoOcc" id="50396e6641774a499add7839c67002eb:0">
##                <udmxml:Attributes>
##                    <udmxml:Attribute xsi:type="udmxml:AttributeCType" valueutf8="8422596e28a46f4aaef452941d5c1b83" type="string" name="protoref" displayName="Prototype reference">8422596e28a46f4aaef452941d5c1b83</udmxml:Attribute>
##                    <udmxml:Attribute xsi:type="udmxml:AttributeCType" valueutf8="018c2bb0c317414781c64b0163806189" type="string" name="protoinstanceref" displayName="Prototype Instance reference">018c2bb0c317414781c64b0163806189</udmxml:Attribute>
##                    <udmxml:Attribute xsi:type="udmxml:AttributeCType" valueutf8="Components(1)" type="string" name="EntitySelectionExp">Components(1)</udmxml:Attribute>
##                    <udmxml:Attribute xsi:type="udmxml:AttributeCType" valueutf8="1" type="string" name="SelectionExp">1</udmxml:Attribute>
##                    <udmxml:Attribute xsi:type="udmxml:AttributeCType" valueutf8="6" type="string" name="UdmxmlString_HmOccurrenceColor">6</udmxml:Attribute>
##                    <udmxml:Attribute xsi:type="udmxml:AttributeCType" valueutf8="6" type="string" name="UdmxmlString_HmOccurrenceId">6</udmxml:Attribute>
##                    <udmxml:Attribute xsi:type="udmxml:AttributeCType" valueutf8="65535" type="string" name="UdmxmlString_HmOccurrenceTrueColor">65535</udmxml:Attribute>
##                </udmxml:Attributes>
##            </udmxml:Entity>
##            <udmxml:Entity xsi:type="udmxml:PartCType" protoInstanceRefId="4bbc93fdffe8854e955680506d3f3f7d:0" prototypeRefId="3a6d4aff90b57f46acaaff6b77d97a49:0" displayName="TACEUL_0000.rad" contentDefinitionType="UDMPartProtoOcc" id="ce2514cbf33ccf4fa58faad0a8cecfbe:0">
##                <udmxml:Attributes>
##                    <udmxml:Attribute xsi:type="udmxml:AttributeCType" valueutf8="3a6d4aff90b57f46acaaff6b77d97a49" type="string" name="protoref" displayName="Prototype reference">3a6d4aff90b57f46acaaff6b77d97a49</udmxml:Attribute>
##                    <udmxml:Attribute xsi:type="udmxml:AttributeCType" valueutf8="4bbc93fdffe8854e955680506d3f3f7d" type="string" name="protoinstanceref" displayName="Prototype Instance reference">4bbc93fdffe8854e955680506d3f3f7d</udmxml:Attribute>
##                    <udmxml:Attribute xsi:type="udmxml:AttributeCType" valueutf8="5" type="string" name="UdmxmlString_HmOccurrenceColor">5</udmxml:Attribute>
##                    <udmxml:Attribute xsi:type="udmxml:AttributeCType" valueutf8="4" type="string" name="UdmxmlString_HmOccurrenceId">4</udmxml:Attribute>
##                    <udmxml:Attribute xsi:type="udmxml:AttributeCType" valueutf8="16711680" type="string" name="UdmxmlString_HmOccurrenceTrueColor">16711680</udmxml:Attribute>
##                </udmxml:Attributes>
##                <udmxml:Children>
##                    <udmxml:Child xsi:type="udmxml:ChildCType" refId="50396e6641774a499add7839c67002eb:0" timestamp="1678717969293044" childFlags="0" groupName="partprotooccs" contentDefinitionType="UDMPartProtoOcc">
##                        <AdditionalIdList xsi:type="udmxml:AdditionalIdCType" xmlns="http://schemas.altair.com/AltairUDM" keyValue="Gas" keyName="displayname" contentDefinitionType="UDMPartProtoOcc"/>
##                    </udmxml:Child>
##                    <udmxml:Child xsi:type="udmxml:ChildCType" refId="250eb350ab15c1449d59588a652709ad:0" timestamp="1678717969293044" childFlags="0" groupName="partprotooccs" contentDefinitionType="UDMPartProtoOcc">
##                        <AdditionalIdList xsi:type="udmxml:AdditionalIdCType" xmlns="http://schemas.altair.com/AltairUDM" keyValue="Gas.1" keyName="displayname" contentDefinitionType="UDMPartProtoOcc"/>
##                    </udmxml:Child>
##                </udmxml:Children>
##            </udmxml:Entity>
##            <udmxml:Entity xsi:type="udmxml:PartCType" prototypeRefId="ea86f237e6f62d4185bd86a5004c1b0e:0" displayName="Model" contentDefinitionType="UDMPartProtoOcc" id="536e35b40c923b458617042ea29edede:0">
##                <udmxml:Attributes>
##                    <udmxml:Attribute xsi:type="udmxml:AttributeCType" valueutf8="ea86f237e6f62d4185bd86a5004c1b0e" type="string" name="protoref" displayName="Prototype reference">ea86f237e6f62d4185bd86a5004c1b0e</udmxml:Attribute>
##                    <udmxml:Attribute xsi:type="udmxml:AttributeCType" valueutf8="5" type="string" name="UdmxmlString_HmOccurrenceColor">5</udmxml:Attribute>
##                    <udmxml:Attribute xsi:type="udmxml:AttributeCType" valueutf8="2" type="string" name="UdmxmlString_HmOccurrenceId">2</udmxml:Attribute>
##                    <udmxml:Attribute xsi:type="udmxml:AttributeCType" valueutf8="16711680" type="string" name="UdmxmlString_HmOccurrenceTrueColor">16711680</udmxml:Attribute>
##                    <udmxml:Attribute xsi:type="udmxml:AttributeCType" valueutf8="true" type="boolean" name="pseudo root">true</udmxml:Attribute>
##                </udmxml:Attributes>
##                <udmxml:Children>
##                    <udmxml:Child xsi:type="udmxml:ChildCType" refId="ce2514cbf33ccf4fa58faad0a8cecfbe:0" timestamp="1678717969293044" childFlags="0" groupName="partprotooccs" contentDefinitionType="UDMPartProtoOcc">
##                        <AdditionalIdList xsi:type="udmxml:AdditionalIdCType" xmlns="http://schemas.altair.com/AltairUDM" keyValue="TACEUL_0000.rad" keyName="displayname" contentDefinitionType="UDMPartProtoOcc"/>
##                    </udmxml:Child>
##                </udmxml:Children>
##            </udmxml:Entity>
##            <udmxml:Entity xsi:type="udmxml:PartCType" protoInstanceRefId="b37bfdee447632458f16f31136257d45:0" prototypeRefId="413a1e473bfda54e9804815bd1dd13f0:0" displayName="Gas.1" contentDefinitionType="UDMPartProtoOcc" id="250eb350ab15c1449d59588a652709ad:0">
##                <udmxml:Attributes>
##                    <udmxml:Attribute xsi:type="udmxml:AttributeCType" valueutf8="413a1e473bfda54e9804815bd1dd13f0" type="string" name="protoref" displayName="Prototype reference">413a1e473bfda54e9804815bd1dd13f0</udmxml:Attribute>
##                    <udmxml:Attribute xsi:type="udmxml:AttributeCType" valueutf8="b37bfdee447632458f16f31136257d45" type="string" name="protoinstanceref" displayName="Prototype Instance reference">b37bfdee447632458f16f31136257d45</udmxml:Attribute>
##                    <udmxml:Attribute xsi:type="udmxml:AttributeCType" valueutf8="Components(2)" type="string" name="EntitySelectionExp">Components(2)</udmxml:Attribute>
##                    <udmxml:Attribute xsi:type="udmxml:AttributeCType" valueutf8="2" type="string" name="SelectionExp">2</udmxml:Attribute>
##                    <udmxml:Attribute xsi:type="udmxml:AttributeCType" valueutf8="7" type="string" name="UdmxmlString_HmOccurrenceColor">7</udmxml:Attribute>
##                    <udmxml:Attribute xsi:type="udmxml:AttributeCType" valueutf8="8" type="string" name="UdmxmlString_HmOccurrenceId">8</udmxml:Attribute>
##                    <udmxml:Attribute xsi:type="udmxml:AttributeCType" valueutf8="16776960" type="string" name="UdmxmlString_HmOccurrenceTrueColor">16776960</udmxml:Attribute>
##                </udmxml:Attributes>
##            </udmxml:Entity>
##        </udmxml:EntityCollection>
##        <udmxml:RelationCollection xsi:type="udmxml:RelationCollectionCType"/>
##        <udmxml:RootEntities xsi:type="udmxml:RootEntityCollectionCType">
##            <udmxml:ItemId>c1fab6a3b49ae343866f8b7ec0def07b:0</udmxml:ItemId>
##        </udmxml:RootEntities>
##    </UDM>
##</Altair_XML_Export>
