#RADIOSS STARTER
#--------------------------------------------------------------------------------------------------|
#- RADIOSS DECK WRITTEN BY HyperCrash
#HyperCrash 2021.2 (64 bits) 
#Mon Dec 13 23:27:53 2021
#-
#-
#- DATE	Mon Dec 13 23:27:53 2021
#--------------------------------------------------------------------------------------------------|
#---1----|----2----|----3----|----4----|----5----|----6----|----7----|----8----|----9----|---10----|
/BEGIN
SHELL_LAW19_PROP9                                                               
      2021         0
                  kg                  mm                  ms
                  kg                  mm                  ms
#---1----|----2----|----3----|----4----|----5----|----6----|----7----|----8----|----9----|---10----|
#-  1. CONTROL CARDS:
#---1----|----2----|----3----|----4----|----5----|----6----|----7----|----8----|----9----|---10----|
/TITLE
Shell with fabric material
#---1----|----2----|----3----|----4----|----5----|----6----|----7----|----8----|----9----|---10----|
#-  2. MATERIALS:
#---1----|----2----|----3----|----4----|----5----|----6----|----7----|----8----|----9----|---10----|
/MAT/FABRI/1
Fabric material
#              RHO_I               RHO_O
                8E-7                   0
#                E11                 E22                NU12
                  .3                  .5                   0
#                G12                 G23                 G31
                 .05                 .05                 .05
#                R_E                              ZEROSTRESS          FSCALE_POR   SENS_ID
                  .1                                       1                   0         0
#---1----|----2----|----3----|----4----|----5----|----6----|----7----|----8----|----9----|---10----|
#-  3. NODES:
#---1----|----2----|----3----|----4----|----5----|----6----|----7----|----8----|----9----|---10----|
/NODE
         2                  20                  20                -1.5
        11                  20                 180                -1.5
        20                 180                  20                -1.5
        23                 180                 180                -1.5
        67                  20                  40                -1.5
        68                  20                  60                -1.5
        69                  20                  80                -1.5
        70                  20                 100                -1.5
        71                  20                 120                -1.5
        72                  20                 140                -1.5
        73                  20                 160                -1.5
       103                 160                  20                -1.5
       104                 140                  20                -1.5
       105                 120                  20                -1.5
       106                 100                  20                -1.5
       107                  80                  20                -1.5
       108                  60                  20                -1.5
       109                  40                  20                -1.5
       139                  40                 180                -1.5
       140                  60                 180                -1.5
# ... 922 like lines cut
#---1----|----2----|----3----|----4----|----5----|----6----|----7----|----8----|----9----|---10----|
#-  4. BOUNDARY CONDITIONS:
#---1----|----2----|----3----|----4----|----5----|----6----|----7----|----8----|----9----|---10----|
/BCS/1
In plane
#  Tra rot   skew_ID  grnod_ID
   001 110         0         1
/GRNOD/GENE/1
In plane
         1 999999999
#---1----|----2----|----3----|----4----|----5----|----6----|----7----|----8----|----9----|---10----|
/BCS/2
End_1
#  Tra rot   skew_ID  grnod_ID
   110 001         0         4
/GRNOD/NODE/4
End_1
       684     10684     20684     30684     40684     50684
#---1----|----2----|----3----|----4----|----5----|----6----|----7----|----8----|----9----|---10----|
/BCS/3
End_2
#  Tra rot   skew_ID  grnod_ID
   010 001         0         5
/GRNOD/NODE/5
End_2
       685     10685     20685     30685     40685     50685
#---1----|----2----|----3----|----4----|----5----|----6----|----7----|----8----|----9----|---10----|
#-  5. PARTS:
#---1----|----2----|----3----|----4----|----5----|----6----|----7----|----8----|----9----|---10----|
/PART/2
shell_part_00_degree
         1         1         0
#---1----|----2----|----3----|----4----|----5----|----6----|----7----|----8----|----9----|---10----|
# SHELL elements of /PART/2/shell_part_00_degree:
#---1----|----2----|----3----|----4----|----5----|----6----|----7----|----8----|----9----|---10----|
/SHELL/2
       510        23       159       554       145
       511       159       158       555       554
       512       158       157       556       555
       513       157       156       557       556
       514       156       155       558       557
       515       155       154       559       558
       516       154       153       560       559
       517       153        20       103       560
       518       145       554       561       144
       519       554       555       562       561
       520       555       556       563       562
       521       556       557       564       563
       522       557       558       565       564
       523       558       559       566       565
       524       559       560       567       566
       525       560       103       104       567
       526       144       561       568       143
       527       561       562       569       568
       528       562       563       570       569
       529       563       564       571       570
# ... 108 like lines cut
#---1----|----2----|----3----|----4----|----5----|----6----|----7----|----8----|----9----|---10----|
/PART/10002
shell_part_90_degree
         2         1         0
#---1----|----2----|----3----|----4----|----5----|----6----|----7----|----8----|----9----|---10----|
# SHELL elements of /PART/10002/shell_part_90_degree:
#---1----|----2----|----3----|----4----|----5----|----6----|----7----|----8----|----9----|---10----|
/SHELL/10002
     10510     10023     10159     10554     10145
     10511     10159     10158     10555     10554
     10512     10158     10157     10556     10555
     10513     10157     10156     10557     10556
     10514     10156     10155     10558     10557
     10515     10155     10154     10559     10558
     10516     10154     10153     10560     10559
     10517     10153     10020     10103     10560
     10518     10145     10554     10561     10144
     10519     10554     10555     10562     10561
     10520     10555     10556     10563     10562
     10521     10556     10557     10564     10563
     10522     10557     10558     10565     10564
     10523     10558     10559     10566     10565
     10524     10559     10560     10567     10566
     10525     10560     10103     10104     10567
     10526     10144     10561     10568     10143
     10527     10561     10562     10569     10568
     10528     10562     10563     10570     10569
     10529     10563     10564     10571     10570
# ... 108 like lines cut
#---1----|----2----|----3----|----4----|----5----|----6----|----7----|----8----|----9----|---10----|
/PART/20002
shell_part_45_degree
         3         1         0
#---1----|----2----|----3----|----4----|----5----|----6----|----7----|----8----|----9----|---10----|
# SHELL elements of /PART/20002/shell_part_45_degree:
#---1----|----2----|----3----|----4----|----5----|----6----|----7----|----8----|----9----|---10----|
/SHELL/20002
     20510     20023     20159     20554     20145
     20511     20159     20158     20555     20554
     20512     20158     20157     20556     20555
     20513     20157     20156     20557     20556
     20514     20156     20155     20558     20557
     20515     20155     20154     20559     20558
     20516     20154     20153     20560     20559
     20517     20153     20020     20103     20560
     20518     20145     20554     20561     20144
     20519     20554     20555     20562     20561
     20520     20555     20556     20563     20562
     20521     20556     20557     20564     20563
     20522     20557     20558     20565     20564
     20523     20558     20559     20566     20565
     20524     20559     20560     20567     20566
     20525     20560     20103     20104     20567
     20526     20144     20561     20568     20143
     20527     20561     20562     20569     20568
     20528     20562     20563     20570     20569
     20529     20563     20564     20571     20570
# ... 108 like lines cut
#---1----|----2----|----3----|----4----|----5----|----6----|----7----|----8----|----9----|---10----|
/PART/30002
sh3n_part_00_degree
         1         1         0
#---1----|----2----|----3----|----4----|----5----|----6----|----7----|----8----|----9----|---10----|
# SH3N elements of /PART/30002/sh3n_part_00_degree:
#---1----|----2----|----3----|----4----|----5----|----6----|----7----|----8----|----9----|---10----|
/SH3N/30002
     30003     50686     50741     30605
     30004     50740     50741     50686
     30005     50740     50738     50739
     30006     50741     50739     30629
     30007     50687     50735     50740
     30008     50735     50736     50738
     30009     50739     50743     30629
     30010     50742     50743     50739
     30011     50742     50733     50734
     30012     50743     50734     30631
     30013     50736     50737     50744
     30014     50738     50744     50742
     30015     50737     50731     50732
     30016     50744     50732     50733
     30017     50745     50746     50723
     30018     50746     50688     50689
     30019     50736     50735     50746
     30020     50735     50687     50688
     30021     50730     50747     50725
     30022     50747     50745     50724
# ... 244 like lines cut
#---1----|----2----|----3----|----4----|----5----|----6----|----7----|----8----|----9----|---10----|
/PART/40002
sh3n_part_90_degree
         2         1         0
#---1----|----2----|----3----|----4----|----5----|----6----|----7----|----8----|----9----|---10----|
# SH3N elements of /PART/40002/sh3n_part_90_degree:
#---1----|----2----|----3----|----4----|----5----|----6----|----7----|----8----|----9----|---10----|
/SH3N/40002
     30267     50825     50880     40605
     30268     50879     50880     50825
     30269     50879     50877     50878
     30270     50880     50878     40629
     30271     50826     50874     50879
     30272     50874     50875     50877
     30273     50878     50882     40629
     30274     50881     50882     50878
     30275     50881     50872     50873
     30276     50882     50873     40631
     30277     50875     50876     50883
     30278     50877     50883     50881
     30279     50876     50870     50871
     30280     50883     50871     50872
     30281     50884     50885     50862
     30282     50885     50827     50828
     30283     50875     50874     50885
     30284     50874     50826     50827
     30285     50869     50886     50864
     30286     50886     50884     50863
# ... 244 like lines cut
#---1----|----2----|----3----|----4----|----5----|----6----|----7----|----8----|----9----|---10----|
/PART/50002
sh3n_part_45_degree
         3         1         0
#---1----|----2----|----3----|----4----|----5----|----6----|----7----|----8----|----9----|---10----|
# SH3N elements of /PART/50002/sh3n_part_45_degree:
#---1----|----2----|----3----|----4----|----5----|----6----|----7----|----8----|----9----|---10----|
/SH3N/50002
     30531     50964     51019     50605
     30532     51018     51019     50964
     30533     51018     51016     51017
     30534     51019     51017     50629
     30535     50965     51013     51018
     30536     51013     51014     51016
     30537     51017     51021     50629
     30538     51020     51021     51017
     30539     51020     51011     51012
     30540     51021     51012     50631
     30541     51014     51015     51022
     30542     51016     51022     51020
     30543     51015     51009     51010
     30544     51022     51010     51011
     30545     51023     51024     51001
     30546     51024     50966     50967
     30547     51014     51013     51024
     30548     51013     50965     50966
     30549     51008     51025     51003
     30550     51025     51023     51002
# ... 244 like lines cut
#---1----|----2----|----3----|----4----|----5----|----6----|----7----|----8----|----9----|---10----|
#-  6. GEOMETRICAL SETS:
#---1----|----2----|----3----|----4----|----5----|----6----|----7----|----8----|----9----|---10----|
/PROP/SH_ORTH/1
Shell 00 degre
#   Ishell    Ismstr     Ish3n    Idrill                            P_thick_fail
        24        11         0         0                                       0
#                 hm                  hf                  hr                  dm                  dn
                   0                   0                   0                   0                   0
#        N   Istrain               Thick              Ashear              Ithick     Iplas
         1         0                   1                   0                   0         0
#                 Vx                  Vy                  Vz                 Phi
                   1                   0                   0                   0
#---1----|----2----|----3----|----4----|----5----|----6----|----7----|----8----|----9----|---10----|
/PROP/SH_ORTH/2
Shell 90 degre
#   Ishell    Ismstr     Ish3n    Idrill                            P_thick_fail
        24        11         0         0                                       0
#                 hm                  hf                  hr                  dm                  dn
                   0                   0                   0                   0                   0
#        N   Istrain               Thick              Ashear              Ithick     Iplas
         1         0                   1                   0                   0         0
#                 Vx                  Vy                  Vz                 Phi
                   0                   1                   0                   0
#---1----|----2----|----3----|----4----|----5----|----6----|----7----|----8----|----9----|---10----|
/PROP/SH_ORTH/3
Shell 45 degre
#   Ishell    Ismstr     Ish3n    Idrill                            P_thick_fail
        24        11         0         0                                       0
#                 hm                  hf                  hr                  dm                  dn
                   0                   0                   0                   0                   0
#        N   Istrain               Thick              Ashear              Ithick     Iplas
         1         0                   1                   0                   0         0
#                 Vx                  Vy                  Vz                 Phi
                   1                   1                   0                   0
#---1----|----2----|----3----|----4----|----5----|----6----|----7----|----8----|----9----|---10----|
#-  7. FUNCTIONS:
#---1----|----2----|----3----|----4----|----5----|----6----|----7----|----8----|----9----|---10----|
/FUNCT_SMOOTH/1
Imposed displacement
#            Ascalex             Fscaley             Ashiftx             Fshifty 
                   0                   0                   0                   0
#                  X                   Y
                   0                   0
                 .25                   1
                  .5                   0
                 .75                  -1
                   1                   0
#---1----|----2----|----3----|----4----|----5----|----6----|----7----|----8----|----9----|---10----|
#-  8. RIGID BODIES:
#---1----|----2----|----3----|----4----|----5----|----6----|----7----|----8----|----9----|---10----|
/RBODY/1
End_1
#     RBID     ISENS     NSKEW    ISPHER                MASS   Gnod_id     IKREM      ICOG   Surf_id
       684         0         0         0                   0         2         0         0         0
#                Jxx                 Jyy                 Jzz
                   0                   0                   0
#                Jxy                 Jyz                 Jxz
                   0                   0                   0
#  Ioptoff               Ifail
         0         0         0
/GRNOD/NODE/2
End_1
         2        11        67        68        69        70        71        72        73
#---1----|----2----|----3----|----4----|----5----|----6----|----7----|----8----|----9----|---10----|
/RBODY/2
End_2
#     RBID     ISENS     NSKEW    ISPHER                MASS   Gnod_id     IKREM      ICOG   Surf_id
       685         0         0         0                   0         3         0         0         0
#                Jxx                 Jyy                 Jzz
                   0                   0                   0
#                Jxy                 Jyz                 Jxz
                   0                   0                   0
#  Ioptoff               Ifail
         0         0         0
/GRNOD/NODE/3
End_2
       605       606       628       629       630       631       632       633       634
#---1----|----2----|----3----|----4----|----5----|----6----|----7----|----8----|----9----|---10----|
/RBODY/10001
End_1
#     RBID     ISENS     NSKEW    ISPHER                MASS   Gnod_id     IKREM      ICOG   Surf_id
     10684         0         0         0                   0     10002         0         0         0
#                Jxx                 Jyy                 Jzz
                   0                   0                   0
#                Jxy                 Jyz                 Jxz
                   0                   0                   0
#  Ioptoff               Ifail
         0         0         0
/GRNOD/NODE/10002
End_1
     10002     10011     10067     10068     10069     10070     10071     10072     10073
#---1----|----2----|----3----|----4----|----5----|----6----|----7----|----8----|----9----|---10----|
/RBODY/10002
End_2
#     RBID     ISENS     NSKEW    ISPHER                MASS   Gnod_id     IKREM      ICOG   Surf_id
     10685         0         0         0                   0     10003         0         0         0
#                Jxx                 Jyy                 Jzz
                   0                   0                   0
#                Jxy                 Jyz                 Jxz
                   0                   0                   0
#  Ioptoff               Ifail
         0         0         0
/GRNOD/NODE/10003
End_2
     10605     10606     10628     10629     10630     10631     10632     10633     10634
#---1----|----2----|----3----|----4----|----5----|----6----|----7----|----8----|----9----|---10----|
/RBODY/20001
End_1
#     RBID     ISENS     NSKEW    ISPHER                MASS   Gnod_id     IKREM      ICOG   Surf_id
     20684         0         0         0                   0     20002         0         0         0
#                Jxx                 Jyy                 Jzz
                   0                   0                   0
#                Jxy                 Jyz                 Jxz
                   0                   0                   0
#  Ioptoff               Ifail
         0         0         0
/GRNOD/NODE/20002
End_1
     20002     20011     20067     20068     20069     20070     20071     20072     20073
#---1----|----2----|----3----|----4----|----5----|----6----|----7----|----8----|----9----|---10----|
/RBODY/20002
End_2
#     RBID     ISENS     NSKEW    ISPHER                MASS   Gnod_id     IKREM      ICOG   Surf_id
     20685         0         0         0                   0     20003         0         0         0
#                Jxx                 Jyy                 Jzz
                   0                   0                   0
#                Jxy                 Jyz                 Jxz
                   0                   0                   0
#  Ioptoff               Ifail
         0         0         0
/GRNOD/NODE/20003
End_2
     20605     20606     20628     20629     20630     20631     20632     20633     20634
#---1----|----2----|----3----|----4----|----5----|----6----|----7----|----8----|----9----|---10----|
/RBODY/30001
End_1 00 degree
#     RBID     ISENS     NSKEW    ISPHER                MASS   Gnod_id     IKREM      ICOG   Surf_id
     30684         0         0         0                   0     30002         0         0         0
#                Jxx                 Jyy                 Jzz
                   0                   0                   0
#                Jxy                 Jyz                 Jxz
                   0                   0                   0
#  Ioptoff               Ifail
         0         0         0
/GRNOD/NODE/30002
End_1 00 degree
     30002     30011     30067     30068     30069     30070     30071     30072     30073
#---1----|----2----|----3----|----4----|----5----|----6----|----7----|----8----|----9----|---10----|
/RBODY/30002
End_2 00 degree
#     RBID     ISENS     NSKEW    ISPHER                MASS   Gnod_id     IKREM      ICOG   Surf_id
     30685         0         0         0                   0     30003         0         0         0
#                Jxx                 Jyy                 Jzz
                   0                   0                   0
#                Jxy                 Jyz                 Jxz
                   0                   0                   0
#  Ioptoff               Ifail
         0         0         0
/GRNOD/NODE/30003
End_2 00 degree
     30605     30606     30628     30629     30630     30631     30632     30633     30634
#---1----|----2----|----3----|----4----|----5----|----6----|----7----|----8----|----9----|---10----|
/RBODY/40001
End_1 90 degree
#     RBID     ISENS     NSKEW    ISPHER                MASS   Gnod_id     IKREM      ICOG   Surf_id
     40684         0         0         0                   0     40002         0         0         0
#                Jxx                 Jyy                 Jzz
                   0                   0                   0
#                Jxy                 Jyz                 Jxz
                   0                   0                   0
#  Ioptoff               Ifail
         0         0         0
/GRNOD/NODE/40002
End_1 90 degree
     40002     40011     40067     40068     40069     40070     40071     40072     40073
#---1----|----2----|----3----|----4----|----5----|----6----|----7----|----8----|----9----|---10----|
/RBODY/40002
End_2 90 degree
#     RBID     ISENS     NSKEW    ISPHER                MASS   Gnod_id     IKREM      ICOG   Surf_id
     40685         0         0         0                   0     40003         0         0         0
#                Jxx                 Jyy                 Jzz
                   0                   0                   0
#                Jxy                 Jyz                 Jxz
                   0                   0                   0
#  Ioptoff               Ifail
         0         0         0
/GRNOD/NODE/40003
End_2 90 degree
     40605     40606     40628     40629     40630     40631     40632     40633     40634
#---1----|----2----|----3----|----4----|----5----|----6----|----7----|----8----|----9----|---10----|
/RBODY/50001
End_1 45 degree
#     RBID     ISENS     NSKEW    ISPHER                MASS   Gnod_id     IKREM      ICOG   Surf_id
     50684         0         0         0                   0     50002         0         0         0
#                Jxx                 Jyy                 Jzz
                   0                   0                   0
#                Jxy                 Jyz                 Jxz
                   0                   0                   0
#  Ioptoff               Ifail
         0         0         0
/GRNOD/NODE/50002
End_1 45 degree
     50002     50011     50067     50068     50069     50070     50071     50072     50073
#---1----|----2----|----3----|----4----|----5----|----6----|----7----|----8----|----9----|---10----|
/RBODY/50002
End_2 45 degree
#     RBID     ISENS     NSKEW    ISPHER                MASS   Gnod_id     IKREM      ICOG   Surf_id
     50685         0         0         0                   0     50003         0         0         0
#                Jxx                 Jyy                 Jzz
                   0                   0                   0
#                Jxy                 Jyz                 Jxz
                   0                   0                   0
#  Ioptoff               Ifail
         0         0         0
/GRNOD/NODE/50003
End_2 45 degree
     50605     50606     50628     50629     50630     50631     50632     50633     50634
#---1----|----2----|----3----|----4----|----5----|----6----|----7----|----8----|----9----|---10----|
#-  9. IMPOSED DISPLACEMENTS:
#---1----|----2----|----3----|----4----|----5----|----6----|----7----|----8----|----9----|---10----|
/IMPDISP/1
End_2
#   Ifunct       DIR     Iskew   Isensor   Gnod_id     Frame     Icoor
         1         X         0         0         5         0         0
#            Scale_x             Scale_y              Tstart               Tstop
                 100                  20                   0                   0
#---1----|----2----|----3----|----4----|----5----|----6----|----7----|----8----|----9----|---10----|
#- 11. TIME HISTORIES:
#---1----|----2----|----3----|----4----|----5----|----6----|----7----|----8----|----9----|---10----|
/TH/RBODY/1
Rbody 00 degre
#     var1      var2      var3      var4      var5      var6      var7      var8      var9     var10
DEF       
#     Obj1      Obj2      Obj3      Obj4      Obj5      Obj6      Obj7      Obj8      Obj9     Obj10
         1         2
#---1----|----2----|----3----|----4----|----5----|----6----|----7----|----8----|----9----|---10----|
/TH/SHEL/2
Shells 00 degre
#     var1      var2      var3      var4      var5      var6      var7      var8      var9     var10
DEF       STRAIN    STRESS    
#     Elid   Skew_ID                                            Elname
       513         0Middle                                                                          
       545         0End_1                                                                           
       609         0End_2                                                                           
#---1----|----2----|----3----|----4----|----5----|----6----|----7----|----8----|----9----|---10----|
/TH/NODE/3
Nodes 00 degre
#     var1      var2      var3      var4      var5      var6      var7      var8      var9     var10
DEF       
#    NODid     Iskew                                           NODname
       684         0End_1                                                                           
       685         0End_2                                                                           
#---1----|----2----|----3----|----4----|----5----|----6----|----7----|----8----|----9----|---10----|
/TH/RBODY/10001
Rbody 90 degre
#     var1      var2      var3      var4      var5      var6      var7      var8      var9     var10
DEF       
#     Obj1      Obj2      Obj3      Obj4      Obj5      Obj6      Obj7      Obj8      Obj9     Obj10
     10001     10002
#---1----|----2----|----3----|----4----|----5----|----6----|----7----|----8----|----9----|---10----|
/TH/SHEL/10002
Shells 90 degre
#     var1      var2      var3      var4      var5      var6      var7      var8      var9     var10
DEF       STRAIN    STRESS    
#     Elid   Skew_ID                                            Elname
     10513         0Middle                                                                          
     10545         0End_1                                                                           
     10609         0End_2                                                                           
#---1----|----2----|----3----|----4----|----5----|----6----|----7----|----8----|----9----|---10----|
/TH/NODE/10003
Nodes 90 degre
#     var1      var2      var3      var4      var5      var6      var7      var8      var9     var10
DEF       
#    NODid     Iskew                                           NODname
     10684         0End_1                                                                           
     10685         0End_2                                                                           
#---1----|----2----|----3----|----4----|----5----|----6----|----7----|----8----|----9----|---10----|
/TH/RBODY/20001
Rbody 45 degre
#     var1      var2      var3      var4      var5      var6      var7      var8      var9     var10
DEF       
#     Obj1      Obj2      Obj3      Obj4      Obj5      Obj6      Obj7      Obj8      Obj9     Obj10
     20001     20002
#---1----|----2----|----3----|----4----|----5----|----6----|----7----|----8----|----9----|---10----|
/TH/SHEL/20002
Shells 45 degre
#     var1      var2      var3      var4      var5      var6      var7      var8      var9     var10
DEF       STRAIN    STRESS    
#     Elid   Skew_ID                                            Elname
     20513         0Middle                                                                          
     20545         0End_1                                                                           
     20609         0End_2                                                                           
#---1----|----2----|----3----|----4----|----5----|----6----|----7----|----8----|----9----|---10----|
/TH/NODE/20003
Nodes 45 degre
#     var1      var2      var3      var4      var5      var6      var7      var8      var9     var10
DEF       
#    NODid     Iskew                                           NODname
     20684         0End_1                                                                           
     20685         0End_2                                                                           
#---1----|----2----|----3----|----4----|----5----|----6----|----7----|----8----|----9----|---10----|
/TH/RBODY/30001
Rbody 00 degre
#     var1      var2      var3      var4      var5      var6      var7      var8      var9     var10
DEF       
#     Obj1      Obj2      Obj3      Obj4      Obj5      Obj6      Obj7      Obj8      Obj9     Obj10
     30001     30002
#---1----|----2----|----3----|----4----|----5----|----6----|----7----|----8----|----9----|---10----|
/TH/NODE/30003
Nodes 00 degre
#     var1      var2      var3      var4      var5      var6      var7      var8      var9     var10
DEF       
#    NODid     Iskew                                           NODname
     30684         0End_1                                                                           
     30685         0End_2                                                                           
#---1----|----2----|----3----|----4----|----5----|----6----|----7----|----8----|----9----|---10----|
/TH/RBODY/40001
Rbody 90 degre
#     var1      var2      var3      var4      var5      var6      var7      var8      var9     var10
DEF       
#     Obj1      Obj2      Obj3      Obj4      Obj5      Obj6      Obj7      Obj8      Obj9     Obj10
     40001     40002
#---1----|----2----|----3----|----4----|----5----|----6----|----7----|----8----|----9----|---10----|
/TH/NODE/40003
Nodes 90 degre
#     var1      var2      var3      var4      var5      var6      var7      var8      var9     var10
DEF       
#    NODid     Iskew                                           NODname
     40684         0End_1                                                                           
     40685         0End_2                                                                           
#---1----|----2----|----3----|----4----|----5----|----6----|----7----|----8----|----9----|---10----|
/TH/RBODY/50001
Rbody 45 degre
#     var1      var2      var3      var4      var5      var6      var7      var8      var9     var10
DEF       
#     Obj1      Obj2      Obj3      Obj4      Obj5      Obj6      Obj7      Obj8      Obj9     Obj10
     50001     50002
#---1----|----2----|----3----|----4----|----5----|----6----|----7----|----8----|----9----|---10----|
/TH/NODE/50003
Nodes 45 degre
#     var1      var2      var3      var4      var5      var6      var7      var8      var9     var10
DEF       
#    NODid     Iskew                                           NODname
     50684         0End_1                                                                           
     50685         0End_2                                                                           
#---1----|----2----|----3----|----4----|----5----|----6----|----7----|----8----|----9----|---10----|
/TH/SH3N/50004
sh3n 00 degre
#     var1      var2      var3      var4      var5      var6      var7      var8      var9     var10
DEF       STRAIN    STRESS    
#     Elid   Skew_ID                                            Elname
     30011         0End_2                                                                           
     30182         0End_1                                                                           
     30188         0Middle                                                                          
#---1----|----2----|----3----|----4----|----5----|----6----|----7----|----8----|----9----|---10----|
/TH/SH3N/50005
Sh3n 90 degre
#     var1      var2      var3      var4      var5      var6      var7      var8      var9     var10
DEF       STRAIN    STRESS    
#     Elid   Skew_ID                                            Elname
     30447         0End_1                                                                           
     30452         0Middle                                                                          
     30275         0End_2                                                                           
#---1----|----2----|----3----|----4----|----5----|----6----|----7----|----8----|----9----|---10----|
/TH/SH3N/50006
Sh3n 45 degre
#     var1      var2      var3      var4      var5      var6      var7      var8      var9     var10
DEF       STRAIN    STRESS    
#     Elid   Skew_ID                                            Elname
     30711         0End_1                                                                           
     30716         0Middle                                                                          
     30544         0End_2                                                                           
#---1----|----2----|----3----|----4----|----5----|----6----|----7----|----8----|----9----|---10----|
/END
#---1----|----2----|----3----|----4----|----5----|----6----|----7----|----8----|----9----|---10----|
