#RADIOSS STARTER
##========================================================================================
##
## Radioss Input Deck Generated by HyperMesh Version  : 2019.1.1-HWDesktop
## Generated using HyperMesh-Radioss Template Version : 2019.1.1_hotfix-HWDesktop
## Date: 01-30-2020   Time: 14:28:09
##
##========================================================================================
##
##--------------------------------------------------------------------------------------------------
#
##
/BEGIN
shock_experiment                                                                
      2019         0
                   g                  mm                  ms
                   g                  mm                  ms
##
/ALE/MUSCL
                    
##--------------------------------------------------------------------------------------------------
## Material Law No 2. JOHNSON-COOK / ZERILLI-ARMSTRONG ELASTOPLASTIC 
##--------------------------------------------------------------------------------------------------
#---1----|----2----|----3----|----4----|----5----|----6----|----7----|----8----|----9----|---10----|
#	       GAMMA                  P0                 PSH                  T0                RHO0
#---1----|----2----|----3----|----4----|----5----|----6----|----7----|----8----|----9----|---10----|
#	       GAMMA                  P0                 PSH                  T0                RHO0
#---1----|----2----|----3----|----4----|----5----|----6----|----7----|----8----|----9----|---10----|
#     Modif. factor.
#     Modif. factor.
#---1----|----2----|----3----|----4----|----5----|----6----|----7----|----8----|----9----|---10----|
#ENDDATA
/MAT/PLAS_JOHNS/5
Alu A 5754                                                                                          
             0.00267
             65000.0                0.33          
                87.0               356.0                0.39                                        
                                                                                                    
                                                                                
##--------------------------------------------------------------------------------------------------
## Material Law No 6. HYDRODYNAMIC VISCOUS FLUID
##--------------------------------------------------------------------------------------------------
#---1----|----2----|----3----|----4----|----5----|----6----|----7----|----8----|----9----|---10----|
#mat_ID_01            Vfrac_01
#mat_ID_01            Vfrac_01
#---1----|----2----|----3----|----4----|----5----|----6----|----7----|----8----|----9----|---10----|
#                Knu                Pmin
/MAT/HYD_VISC/1
AIR_HIGH_PRESSURE                                                                                   
#              RHO_0
1.31070000000000E-05
                 0.0                 0.0
/EOS/IDEAL-GAS/1
AIR_HIGH_PRESSURE                                                                                   
                 1.4                1.07                 0.0                 0.01.31070000000000E-05
#                Knu                Pmin
/MAT/HYD_VISC/3
AIR_LOW_PRESSURE                                                                                    
#              RHO_0
1.22500000000000E-06
                 0.0                 0.0
/EOS/IDEAL-GAS/3
AIR_LOW_PRESSURE                                                                                    
                 1.4                 0.1                 0.0                 0.01.22500000000000E-06
##--------------------------------------------------------------------------------------------------
## Multifluid material law
##--------------------------------------------------------------------------------------------------
/MAT/LAW151/2
Multimaterial AIR high                                                                              

         1                 1.0
/ALE/MAT/2
                 0.0
/MAT/LAW151/4
Multimaterial AIR low                                                                               

         3                 1.0
/ALE/MAT/4
                 0.0
##--------------------------------------------------------------------------------------------------
## NODES
##--------------------------------------------------------------------------------------------------
/NODE
         1                 0.0                 0.0                 0.0
         2                40.0                40.0                 0.0
         4               -40.0               -40.0                 0.0
         7                40.0               -40.0                 0.0
         8               -40.0                40.0                 0.0
         9               -40.0                40.0                 0.0
        10               -36.0                40.0                 0.0
        11               -32.0                40.0                 0.0
        12               -28.0                40.0                 0.0
        13               -24.0                40.0                 0.0
        14               -20.0                40.0                 0.0
        15               -16.0                40.0                 0.0
        16               -12.0                40.0                 0.0
        17   -7.99999999999998                40.0                 0.0
        18                -4.0                40.0                 0.0
        19                 0.0                40.0                 0.0
        79               -40.0                 0.0                 0.0
        80               -40.0                 4.0                 0.0
        81               -40.0                 8.0                 0.0
        82               -40.0                12.0                 0.0
# ... 120501 like lines cut
##--------------------------------------------------------------------------------------------------
## Boundary Conditions
##--------------------------------------------------------------------------------------------------
##HWCOLOR loadcollectors 1 21
/BCS/1
Screws                                                                                              
   111 111                   1
/GRNOD/NODE/1
BCS_set                                                                                             
    440691    440693    440694    440710    440711    440718    440724    440785    440786    440820
    440821    440856    440929    440932    440983    440985    440995    440996    441006    441007
    441008
##HWCOLOR loadcollectors 2 4
/BCS/2
BCS_axe_y                                                                                           
   100 011                   2
/GRNOD/NODE/2
Set_axe_y                                                                                           
    440600    440601    440717    440798    440799    440845    440886    440887    440961    440984
##HWCOLOR loadcollectors 3 61
/BCS/3
BCS_axe_x                                                                                           
   010 101                   3
/GRNOD/NODE/3
Set_axe_x                                                                                           
    440585    440586    440664    440665    440725    440728    440883    440885    440971    440984
##HWCOLOR loadcollectors 5 4
/ALE/BCS/5
ALE_BCS_Bottom                                                                                      
   111 000                   4
/GRNOD/NODE/4
ALE_BCS_Bottom                                                                                      
         9        10        11        12        13        14        15        16        17        18
        19        79        80        81        82        83        84        85        86        87
        88        98        99       100       101       102       103       104       105       106
       107       279       280       281       282       283       284       285       286       287
       369       370       371       372       373       374       375       376       377       378
       379       380       381       382       383       384       385       386       387       388
       389       390       391       392       393       394       395       396       397       398
       399       400       401       402       403       404       405       406       407       408
       409       410       411       412       413       414       415       416       417       418
       419       420       421       422       423       424       425       426       427       428
       429       430       431       432       433       434       435       436       437       438
       439       440       441       442       443       444       445       446       447       448
       449
##HWCOLOR loadcollectors 6 4
/ALE/BCS/6
ALE_BCS_Lateral                                                                                     
   110 000                   5
/GRNOD/NODE/5
ALE_BCS_Lateral                                                                                     
      2244      2353      2356      2358      2362      2365      2367      2383      2386      2390
      2392      2511      2512      2513      2516      2519      2522      2539      2540      2543
      2546      2555      2556      2557      2558      2559      2560      2561      2562      2563
      2564      2565      2566      2567      2568      2569      2570      2571      2572      2573
      2574      2575      2576      2577      2578      2579      2580      2581      2582      2583
      2584      2585      2586      2587      2588      2589      2590      2591      2592      2593
      2594      2595      2596      2597      2598      2599      2600      2601      2602      2603
      2604      2605      2606      2607      2608      2609      2610      2611      2612      2613
      2614      2615      2616      2617      2618      2619      2620      2621      2622      2623
      2624      2625      2626      2627      2628      2629      2630      2631      2632      2633
      2634      2635      2636      2637      2638      2639      2640      2641      2642      2643
      2644      2645      2646      2647      2648      2649      2650      2651      2652      2653
      2654      2685      2794      2797      2799      2803      2806      2808      2824      2827
      2831      2833      2952      2953      2954      2957      2960      2963      2980      2981
      2984      2987      2996      2997      2998      2999      3000      3001      3002      3003
      3004      3005      3006      3007      3008      3009      3010      3011      3012      3013
      3014      3015      3016      3017      3018      3019      3020      3021      3022      3023
      3024      3025      3026      3027      3028      3029      3030      3031      3032      3033
      3034      3035      3036      3037      3038      3039      3040      3041      3042      3043
      3044      3045      3046      3047      3048      3049      3050      3051      3052      3053
# ... 12008 like lines cut
##--------------------------------------------------------------------------------------------------
## Solid Elements (Hexaedron)
##--------------------------------------------------------------------------------------------------
/BRICK/1
      2301       383       382       387       386      2555      2558      2557      2556
      2302       382       379       378       387      2558      2560      2559      2557
      2303       386       387       372       371      2556      2557      2562      2561
      2304       387       378       373       372      2557      2559      2563      2562
      2305       384       383       386       388      2564      2555      2556      2565
      2306       388       386       371       370      2565      2556      2561      2566
      2307        12       385       389        13      2567      2570      2569      2568
      2308       385       384       388       389      2570      2564      2565      2569
      2309        13       389       369        14      2568      2569      2572      2571
      2310       389       388       370       369      2569      2565      2566      2572
      2311        86        85       392       390      2573      2576      2575      2574
      2312        85        84       381       392      2576      2578      2577      2575
      2313       382       383       391       393      2558      2555      2580      2579
      2314       393       391       390       392      2579      2580      2574      2575
      2315       379       382       393       380      2560      2558      2579      2581
      2316       380       393       392       381      2581      2579      2575      2577
      2317        87        86       390       394      2582      2573      2574      2583
      2318       394       390       391       395      2583      2574      2580      2584
      2319       395       391       383       384      2584      2580      2555      2564
      2320         9        88       396        10      2585      2588      2587      2586
# ... 19980 like lines cut
/BRICK/2
     82005     90351     90350     90270     90271     90430     90433     90432     90431
     82009     90149     90404     90403     90151     90446     90449     90448     90447
     82022     90410     90411     90413     90412     90494     90497     90496     90495
     82024     90356     90370     90367     90353     90502     90505     90504     90503
     82025     90386     90320     90321     90387     90506     90509     90508     90507
     82027     90324     90323     90314     90315     90513     90516     90515     90514
     82028     90374     90389     90390     90377     90517     90520     90519     90518
     82033     90412     90413     90391     90388     90495     90496     90536     90535
     82034     90345     90344     90347     90346     90537     90540     90539     90538
     82035     90408     90401     90398     90409     90541     90544     90543     90542
     82039     90334     90335     90337     90336     90554     90557     90556     90555
     82043     90121     90385     90383     90124     90564     90570     90569     90563
     82044     90278     90275     90366     90364     90571     90574     90573     90572
     82046     90322     90318     90359     90361     90579     90582     90581     90580
     82059     90381     90380     90374     90375     90621     90623     90517     90622
     82064     90364     90365     90281     90278     90572     90632     90631     90571
     82065     90355     90354     90351     90352     90633     90635     90430     90634
     82067     90358     90357     90354     90355     90638     90639     90635     90633
     82070     90142     90399     90400     90145     90644     90647     90646     90645
     82072     90378     90379     90405     90404     90649     90651     90650     90449
# ... 79480 like lines cut
##--------------------------------------------------------------------------------------------------
## Quad Shell Elements
##--------------------------------------------------------------------------------------------------
/SHELL/3
       301    440669    440668    440879    440832                                                  
       302    440832    440879    440736    440928                                                  
       303    440668    440663    440662    440879                                                  
       304    440879    440662    440733    440736                                                  
       305    440670    440667    440668    440669                                                  
       306    440667    440973    440663    440668                                                  
       307    440996    440932    440931    440979                                                  
       308    440979    440931    440667    440670                                                  
       309    440932    440929    440930    440931                                                  
       310    440931    440930    440973    440667                                                  
       311    441006    440966    440708    440711                                                  
       312    440711    440708    440709    440710                                                  
       313    440832    440806    440831    440669                                                  
       314    440806    440708    440966    440831                                                  
       315    440928    440807    440806    440832                                                  
       316    440807    440709    440708    440806                                                  
       317    441007    440997    440966    441006                                                  
       318    440997    440853    440831    440966                                                  
       319    440853    440670    440669    440831                                                  
       320    440694    440691    440692    440693                                                  
# ... 80 like lines cut
##--------------------------------------------------------------------------------------------------
## Shell Property Set (pid 1)
##--------------------------------------------------------------------------------------------------
/PROP/SHELL/2
Prop_shell                                                                                          
        12         4                                                            
                                                                                                    
         5                          0.52                                                  
##--------------------------------------------------------------------------------------------------
## General Solid Property Set (pid 14)
##--------------------------------------------------------------------------------------------------
/PROP/SOLID/1
Prop_fluid                                                                                          
                                                                                
                                                                                                    
                              
##--------------------------------------------------------------------------------------------------
## Functions
##--------------------------------------------------------------------------------------------------
##HWCOLOR curves 1 11
/FUNCT/1
unity                                                                                               
                 0.0                 1.0
           1000000.0                 1.0
##--------------------------------------------------------------------------------------------------
## Pressure Loads
##--------------------------------------------------------------------------------------------------
##HWCOLOR loadcollectors 4 4
/PLOAD/4
P_load                                                                                              
         1         1                                                         1.0                 0.1
##------------------------------------------------------------------------------
## Surf Segments
##------------------------------------------------------------------------------
/SURF/SEG/1
Surf_P_load                                                                                         
         1    440669    440668    440879    440832
         2    440832    440879    440736    440928
         3    440668    440663    440662    440879
         4    440879    440662    440733    440736
         5    440670    440667    440668    440669
         6    440667    440973    440663    440668
         7    440996    440932    440931    440979
         8    440979    440931    440667    440670
         9    440932    440929    440930    440931
        10    440931    440930    440973    440667
        11    441006    440966    440708    440711
        12    440711    440708    440709    440710
        13    440832    440806    440831    440669
        14    440806    440708    440966    440831
        15    440928    440807    440806    440832
        16    440807    440709    440708    440806
        17    441007    440997    440966    441006
        18    440997    440853    440831    440966
        19    440853    440670    440669    440831
        20    440694    440691    440692    440693
# ... 80 like lines cut
##--------------------------------------------------------------------------------------------------
## Sets
##--------------------------------------------------------------------------------------------------
##--------------------------------------------------------------------------------------------------
## Parts
##--------------------------------------------------------------------------------------------------
##HWCOLOR components 1 4
/PART/1
High_pressure                                                                                       
         1         2                              
##HWCOLOR components 2 5
/PART/2
Low_pressure                                                                                        
         1         4                              
##HWCOLOR components 3 3
/PART/3
Plate                                                                                               
         2         5                              
##--------------------------------------------------------------------------------------------------
## Time History - Nodes
##--------------------------------------------------------------------------------------------------
/TH/NODE/1
def_plate                                                                                           
DEF       
    440984         0                                                                                
##--------------------------------------------------------------------------------------------------
## Time History - Elems
##--------------------------------------------------------------------------------------------------
##--------------------------------------------------------------------------------------------------
## Time History - Parts
##--------------------------------------------------------------------------------------------------
##--------------------------------------------------------------------------------------------------
## Time History - Frames
##--------------------------------------------------------------------------------------------------
##--------------------------------------------------------------------------------------------------
## Time History - Interfaces and Rwalls
##--------------------------------------------------------------------------------------------------
##--------------------------------------------------------------------------------------------------
## Time History - Cyl Joints
##--------------------------------------------------------------------------------------------------
##--------------------------------------------------------------------------------------------------
## Time History - Accelerometer
##--------------------------------------------------------------------------------------------------
##--------------------------------------------------------------------------------------------------
## Time History - Monv and Sections
##--------------------------------------------------------------------------------------------------
##--------------------------------------------------------------------------------------------------
## Time History - Subsets
##--------------------------------------------------------------------------------------------------
##--------------------------------------------------------------------------------------------------
## Time History - Control vols
##--------------------------------------------------------------------------------------------------
##--------------------------------------------------------------------------------------------------
## Time History - Cross Sections
##--------------------------------------------------------------------------------------------------
##--------------------------------------------------------------------------------------------------
## Time History - Rigid Walls
##--------------------------------------------------------------------------------------------------
##--------------------------------------------------------------------------------------------------
## Time History - Load Collectors
##--------------------------------------------------------------------------------------------------
##--------------------------------------------------------------------------------------------------
## Time History - Sets
##--------------------------------------------------------------------------------------------------
##--------------------------------------------------------------------------------------------------
## Time History - Element Clusters
##--------------------------------------------------------------------------------------------------
##------------------------------------------------------------------------------
## End Of Radioss Block Deck
##------------------------------------------------------------------------------
/END
