#RADIOSS STARTER
/BEGIN
MAST
      2022         0
                  Mg                  mm                   s
                  Mg                  mm                   s
/NODE
#   node_ID                   X                   Y                   Z
         1                 0.0                 0.0                 0.0
         2                 0.0                 0.0               200.0
         3                 0.0                 0.0               400.0
         4                 0.0                 0.0               600.0
         5                 0.0                 0.0               800.0
         6                 0.0                 0.0              1000.0
         7                 0.0                 0.0              1200.0
         8                 0.0                 0.0              1400.0
         9                 0.0                 0.0              1600.0
        10                 0.0                 0.0              1800.0
        11                 0.0                 0.0              2000.0
        99                 0.0              1000.0                 0.0
/BEAM/1
         1         1         2        99
         2         2         3        99
         3         3         4        99
         4         4         5        99
         5         5         6        99
         6         6         7        99
         7         7         8        99
         8         8         9        99
         9         9        10        99
        10        10        11        99
/PART/1
mast tube
         1         1
/MAT/LAW1/1
steel elastic
             7.8e-06
               210.0                 0.3
/PROP/BEAM/1
tube D60.3x4
          
          
               707.5            281800.0            281800.0            563600.0
          
/GRNOD/NODE/1
base
         1
/GRNOD/NODE/2
tip
        11
/BCS/1
clamp base (translations + rotations)
   111 111         0         1
/FUNCT/1
half-sine gust, peak 1.0 at t=10ms, zero after 20ms
                 0.0                 0.0
                 2.0            0.309017
                 4.0            0.587785
                 6.0            0.809017
                 8.0            0.951057
                10.0                 1.0
                12.0            0.951057
                14.0            0.809017
                16.0            0.587785
                18.0            0.309017
                20.0                 0.0
               20.01                 0.0
              1000.0                 0.0
/CLOAD/1
gust at the tip, +x, peak 0.5 kN
         1         X                             2                                               0.5
/TH/NODE/1
tip motion
DX        VX        
        11
/TH/PART/2
mast energies
IE        KE        
         1
/END
