#RADIOSS STARTER
##========================================================================================
##
## Radioss Input Deck Generated by HyperMesh Version  : 2023.1.0.21
## Generated using HyperMesh-Radioss Template Version : 2023.1.0.21-40550
## Date: 05-14-2024   Time: 16:26:08
##
##========================================================================================
##
##--------------------------------------------------------------------------------------------------
#Runname                                                                        
#Runname                                                                        
#Runname                                                                        
/BEGIN
#Runname                                                                        
includefile1                                                                    
#   Invers      Irun
      2023         0
#    Input_mass_unit   Input_length_unit     Input_time_unit
                   g                  mm                  ms
#     Work_mass_unit    Work_length_unit      Work_time_unit
                   g                  mm                  ms
#---1----|----2----|----3----|----4----|----5----|----6----|----7----|----8----|----9----|---10----|
#   Invers      Irun
#    Input_mass_unit   Input_length_unit     Input_time_unit
#     Work_mass_unit    Work_length_unit      Work_time_unit
#   Invers      Irun
#    Input_mass_unit   Input_length_unit     Input_time_unit
#     Work_mass_unit    Work_length_unit      Work_time_unit
#   Invers      Irun
#    Input_mass_unit   Input_length_unit     Input_time_unit
#     Work_mass_unit    Work_length_unit      Work_time_unit
#                E11                 E22                NU12
#                G12                 G23                 G31
#                R_E                              ZEROSTRESS          ISURF_PORO   SENS_ID
##HWCOLOR materials 10 43
/MAT/FABRI/10
leather                                                                                             
#              RHO_I               RHO_O
             0.00201                 0.0
#                E11                 E22                NU12
             20000.0             20000.0                0.29
#                G12                 G23                 G31
             10000.0             10000.0             10000.0
#                R_E                              ZEROSTRESS          FSCALE_POR   SENS_ID
1.00000000000000E-03                                     0.0                 0.0         0
#---1----|----2----|----3----|----4----|----5----|----6----|----7----|----8----|----9----|---10----|
##HWCOLOR materials 1001 59
/MAT/GAS/MASS/1001
AIR, g, mm, ms
#                 MW
            30.09204
#                Cpa                 Cpb                 Cpc                 Cpd                 Cpe
               926.0                 0.0                 0.0                 0.0                 0.0
#                Cpf
                 0.0
#---1----|----2----|----3----|----4----|----5----|----6----|----7----|----8----|----9----|---10----|
##HWCOLOR materials 1002 59
/MAT/PLAS_JOHNS/1002
floor steel                                                                                         
#              RHO_I
             0.00785
#                  E                  Nu     Iflag
            210000.0                 0.3         1
#              SIG_Y                 UTS                EUTS           EPS_p_max            SIG_max0
               270.0               450.0                 0.6                 0.0                 0.0
#                  c           EPS_DOT_0       ICC   Fsmooth               F_cut               Chard
                 0.1                 1.0         0         0                 0.0                 0.0
#                  m              T_melt              rhoC_p                 T_r
                 0.0                 0.0                 0.0                 0.0
#enddata
/END
