#RADIOSS STARTER
#--------------------------------------------------------------------------------------------------|
#- RADIOSS DECK WRITTEN BY HyperCrash
#HyperCrash 14.0 (64 bits) 
#Mon Dec 21 15:04:19 2015
#-
#--------------------------------------------------------------------------------------------------|
#- RADIOSS DECK WRITTEN BY HyperCrash
#HyperCrash 10.0 SA2 (64 bits)
#Tue Jul 20 10:52:45 2010
#-
#
#
#-
#- DATE	Tue Jul 20 10:52:45 2010
#--------------------------------------------------------------------------------------------------|
#---1----|----2----|----3----|----4----|----5----|----6----|----7----|----8----|----9----|---10----|
#-
#- DATE	Mon Dec 21 15:04:19 2015
#--------------------------------------------------------------------------------------------------|
#---1----|----2----|----3----|----4----|----5----|----6----|----7----|----8----|----9----|---10----|
/BEGIN
WAVE                                                                            
       140         0
                  kg                   m                   s
                  kg                   m                   s
#---1----|----2----|----3----|----4----|----5----|----6----|----7----|----8----|----9----|---10----|
#-  1. CONTROL CARDS:
#---1----|----2----|----3----|----4----|----5----|----6----|----7----|----8----|----9----|---10----|
/TITLE
UNKNOW
#---1----|----2----|----3----|----4----|----5----|----6----|----7----|----8----|----9----|---10----|
/ANALY
#    N2D3D             IPARITH      ISUB
         2                   0         0
#---1----|----2----|----3----|----4----|----5----|----6----|----7----|----8----|----9----|---10----|
/DEF_SHELL
#   ISHELL    ISMSTR    ITHICK     IPLAS   ISTRAIN                        I_SH3N     IDRIL
         0         0         0         0         0                             1         0
#---1----|----2----|----3----|----4----|----5----|----6----|----7----|----8----|----9----|---10----|
/DEF_SOLID
#  I_SOLID    ISMSTR             ISTRAIN                                  IFRAME
         0         0                   0                                       0
#---1----|----2----|----3----|----4----|----5----|----6----|----7----|----8----|----9----|---10----|
/IOFLAG
#     IPRI               IGTYP     IOUTP    IOUTYY   IROOTYY     IDROT
         0                   0         0         0         0         0
#---1----|----2----|----3----|----4----|----5----|----6----|----7----|----8----|----9----|---10----|
/SHFRA/V4
#---1----|----2----|----3----|----4----|----5----|----6----|----7----|----8----|----9----|---10----|
/SPMD
#   DOMDEC     Nproc              Dkword             Nthread
         0         0                   0                   1
#---1----|----2----|----3----|----4----|----5----|----6----|----7----|----8----|----9----|---10----|
#-  2. MATERIALS:
#---1----|----2----|----3----|----4----|----5----|----6----|----7----|----8----|----9----|---10----|
/MAT/ELAST/1
Material
#              RHO_I
                2842                2842
#                  E                  nu
         73000000000                 .33
#---1----|----2----|----3----|----4----|----5----|----6----|----7----|----8----|----9----|---10----|
#-  3. NODES:
#---1----|----2----|----3----|----4----|----5----|----6----|----7----|----8----|----9----|---10----|
/NODE
         1                   0                   8          4.76000023
         2                   0                   0          4.76000023
         3                   0                   0                   0
         4                   0                   8                   0
         5                   0                   8          4.71509457
         6                   0                   8           4.6701889
         7                   0                   8          4.62528324
         8                   0                   8          4.58037758
         9                   0                   8          4.53547192
        10                   0                   8          4.49056625
        11                   0                   8          4.44566059
        12                   0                   8          4.40075493
        13                   0                   8          4.35584927
        14                   0                   8           4.3109436
        15                   0                   8          4.26603794
        16                   0                   8          4.22113228
        17                   0                   8          4.17622662
        18                   0                   8          4.13132095
        19                   0                   8          4.08641529
        20                   0                   8          4.04150963
# ... 19347 like lines cut
#---1----|----2----|----3----|----4----|----5----|----6----|----7----|----8----|----9----|---10----|
#-  4. BOUNDARY CONDITIONS:
#---1----|----2----|----3----|----4----|----5----|----6----|----7----|----8----|----9----|---10----|
/BCS/1
BC
#  Tra rot   skew_ID  grnod_ID
   111 111         0         4
/GRNOD/GRNOD/4
New GRNOD 4
         6
/GRNOD/GRNOD/6
New GRNOD 4 _nodes_subgroup_
         5
/GRNOD/NODE/5
New GRNOD 4 _nodes_subsubgroup_
         1         2         3         4         5         6         7         8         9        10
        11        12        13        14        15        16        17        18        19        20
        21        22        23        24        25        26        27        28        29        30
        31        32        33        34        35        36        37        38        39        40
        41        42        43        44        45        46        47        48        49        50
        51        52        53        54        55        56        57        58        59        60
        61        62        63        64        65        66        67        68        69        70
        71        72        73        74        75        76        77        78        79        80
        81        82        83        84        85        86        87        88        89        90
        91        92        93        94        95        96        97        98        99       100
       101       102       103       104       105       106       107       108       109       289
       290       291       292       293       294       295       296       297       298       299
       300       301       302       303       304       305       306       307       308       309
       310       311       312       313       314       315       316       317       318       319
       320       321       322       323       324       325       326       327       328       329
       330       331       332       333       334       335       336       337       338       339
       340       341       342       343       344       345       346       347       348       349
       350       351       352       353       354       355       356       357       358       359
       360       361       362       363       364       365       366       367       368       369
       370       371       372       373       374       375       376       377       378       379
# ... 20 like lines cut
#---1----|----2----|----3----|----4----|----5----|----6----|----7----|----8----|----9----|---10----|
#-  5. PARTS:
#---1----|----2----|----3----|----4----|----5----|----6----|----7----|----8----|----9----|---10----|
/PART/1
QUAD
         1         1         0
#---1----|----2----|----3----|----4----|----5----|----6----|----7----|----8----|----9----|---10----|
# QUAD elements of /PART/1/QUAD:
#---1----|----2----|----3----|----4----|----5----|----6----|----7----|----8----|----9----|---10----|
/QUAD/1
         1         2       289       573       288
         2       288       573       678       287
         3       287       678       783       286
         4       286       783       888       285
         5       285       888       993       284
         6       284       993      1098       283
         7       283      1098      1203       282
         8       282      1203      1308       281
         9       281      1308      1413       280
        10       280      1413      1518       279
        11       279      1518      1623       278
        12       278      1623      1728       277
        13       277      1728      1833       276
        14       276      1833      1938       275
        15       275      1938      2043       274
        16       274      2043      2148       273
        17       273      2148      2253       272
        18       272      2253      2358       271
        19       271      2358      2463       270
        20       270      2463      2568       269
# ... 19060 like lines cut
#---1----|----2----|----3----|----4----|----5----|----6----|----7----|----8----|----9----|---10----|
#-  6. GEOMETRICAL SETS:
#---1----|----2----|----3----|----4----|----5----|----6----|----7----|----8----|----9----|---10----|
/PROP/SOLID/1
Properties
#   Isolid    Ismstr               Icpre               Inpts    Itetra    Iframe                  dn
         0         0                   0                   0         0         0                   0
#                q_a                 q_b                   h            LAMBDA_V                MU_V
                   0                   0                   0                   0                   0
#             dt_min   istrain      IHKT
                   0         0         0
#---1----|----2----|----3----|----4----|----5----|----6----|----7----|----8----|----9----|---10----|
#-  7. FUNCTIONS:
#---1----|----2----|----3----|----4----|----5----|----6----|----7----|----8----|----9----|---10----|
/FUNCT/1
FUNCT 1
#                  X                   Y
                   0                   0                                                            
              1.3E-5                .964                                                            
              1.4E-5                .985                                                            
              1.5E-5                .997                                                            
             1.57E-5                   1                                                            
              1.6E-5                .999                                                            
              1.7E-5                .992                                                            
              1.8E-5                .973                                                            
             3.14E-5                   0                                                            
              4.5E-5               -.977                                                            
              4.6E-5               -.994                                                            
              4.7E-5               -.999                                                            
             4.71E-5                  -1                                                            
              4.8E-5               -.996                                                            
              4.9E-5               -.982                                                            
                5E-5               -.959                                                            
             6.28E-5                   0                                                            
              7.6E-5                .968                                                            
              7.7E-5                .988                                                            
              7.8E-5                .998                                                            
# ... 14 like lines cut
#---1----|----2----|----3----|----4----|----5----|----6----|----7----|----8----|----9----|---10----|
#-  8. CONCENTRATED LOADS:
#---1----|----2----|----3----|----4----|----5----|----6----|----7----|----8----|----9----|---10----|
/CLOAD/1
Load
#funct_IDT       Dir   skew_ID sensor_ID  grnod_ID                       Ascalex             Fscaley
         1         Z         0         0         1                             1         -1000000000
/GRNOD/GRNOD/1
New GRNOD 1
         3
/GRNOD/GRNOD/3
New GRNOD 1 _nodes_subgroup_
         2
/GRNOD/NODE/2
New GRNOD 1 _nodes_subsubgroup_
       187       188       189       190       191       192       193       194       195       196
       197       198       199       200       201       202       203       204       205       206
       207       208       209       210
#---1----|----2----|----3----|----4----|----5----|----6----|----7----|----8----|----9----|---10----|
#-  9. TIME HISTORIES:
#---1----|----2----|----3----|----4----|----5----|----6----|----7----|----8----|----9----|---10----|
/TH/NODE/1
node 3.2mm
#     var1      var2      var3      var4      var5      var6      var7      var8      var9     var10
DEF       
#    NODid     Iskew                                           NODname
     10093         0node 3.2mm_group_0                                                              
#---1----|----2----|----3----|----4----|----5----|----6----|----7----|----8----|----9----|---10----|
/TH/NODE/5
node 0mm
#     var1      var2      var3      var4      var5      var6      var7      var8      var9     var10
DEF       
#    NODid     Iskew                                           NODname
       198         0node 0mm_group_0                                                                
#---1----|----2----|----3----|----4----|----5----|----6----|----7----|----8----|----9----|---10----|
/TH/NODE/6
node 2mm
#     var1      var2      var3      var4      var5      var6      var7      var8      var9     var10
DEF       
#    NODid     Iskew                                           NODname
     10066         0node 2mm_group_0                                                                
#---1----|----2----|----3----|----4----|----5----|----6----|----7----|----8----|----9----|---10----|
/TH/NODE/7
node 4.75mm
#     var1      var2      var3      var4      var5      var6      var7      var8      var9     var10
DEF       
#    NODid     Iskew                                           NODname
     10127         0node 4.75mm_group_0                                                             
#---1----|----2----|----3----|----4----|----5----|----6----|----7----|----8----|----9----|---10----|
/END
#---1----|----2----|----3----|----4----|----5----|----6----|----7----|----8----|----9----|---10----|
