#RADIOSS STARTER
#--------------------------------------------------------------------------------------------------|
#- RADIOSS DECK WRITTEN BY HyperCrash
#HyperCrash 14.0 (64 bits) 
#Mon Dec 21 15:04:14 2015
#-
#--------------------------------------------------------------------------------------------------|
#- RADIOSS DECK WRITTEN BY HyperCrash
#HyperCrash 10.0 SA2 (64 bits)
#Wed Jul 21 18:09:48 2010
#-
#-
#- DATE	Wed Jul 21 18:09:48 2010
#--------------------------------------------------------------------------------------------------|
#---1----|----2----|----3----|----4----|----5----|----6----|----7----|----8----|----9----|---10----|
#-
#- DATE	Mon Dec 21 15:04:14 2015
#--------------------------------------------------------------------------------------------------|
#---1----|----2----|----3----|----4----|----5----|----6----|----7----|----8----|----9----|---10----|
/BEGIN
I16S16CM                                                                        
       140         0
                  kg                  mm                   s
                  kg                  mm                   s
#---1----|----2----|----3----|----4----|----5----|----6----|----7----|----8----|----9----|---10----|
#-  1. CONTROL CARDS:
#---1----|----2----|----3----|----4----|----5----|----6----|----7----|----8----|----9----|---10----|
/TITLE
I16S16MG
#---1----|----2----|----3----|----4----|----5----|----6----|----7----|----8----|----9----|---10----|
/ANALY
#    N2D3D             IPARITH      ISUB
         0                   0         0
#---1----|----2----|----3----|----4----|----5----|----6----|----7----|----8----|----9----|---10----|
/DEF_SHELL
#   ISHELL    ISMSTR    ITHICK     IPLAS   ISTRAIN                        I_SH3N     IDRIL
         0         0         0         0         0                             0         0
#---1----|----2----|----3----|----4----|----5----|----6----|----7----|----8----|----9----|---10----|
/DEF_SOLID
#  I_SOLID    ISMSTR             ISTRAIN                                  IFRAME
         0         0                   0                                       0
#---1----|----2----|----3----|----4----|----5----|----6----|----7----|----8----|----9----|---10----|
/IOFLAG
#     IPRI               IGTYP     IOUTP    IOUTYY   IROOTYY     IDROT
         0                   0         0         0         0         0
#---1----|----2----|----3----|----4----|----5----|----6----|----7----|----8----|----9----|---10----|
/SPMD
#   DOMDEC     Nproc              Dkword             Nthread
         0         0                   0                   1
#---1----|----2----|----3----|----4----|----5----|----6----|----7----|----8----|----9----|---10----|
#-  2. MATERIALS:
#---1----|----2----|----3----|----4----|----5----|----6----|----7----|----8----|----9----|---10----|
/MAT/PLAS_JOHNS/1
Steel
#              RHO_I
              7.8E-6              7.8E-6
#                  E                  Nu
           210000000                  .3
#                  a                   b                   n           EPS_p_max            SIG_max0
              200000              400000                  .5                   0                   0
#                  c           EPS_DOT_0       ICC   Fsmooth               F_cut               Chard
                   0                   0         0         0                   0                   0
#                  m              T_melt              rhoC_p                 T_r
                   0                   0                   0                   0
#---1----|----2----|----3----|----4----|----5----|----6----|----7----|----8----|----9----|---10----|
#-  3. NODES:
#---1----|----2----|----3----|----4----|----5----|----6----|----7----|----8----|----9----|---10----|
/NODE
         1                   0                   0                .185
         2                 -14                   0                .185
         3                   0                   0             -13.815
         4                  -7                   0                .185
         5                   0                   0              -6.815
         6         -9.89949493                   0         -9.71449493
         7         -5.36420872                   0         -5.24445958
         8          -5.3524687                   0         -12.7370025
        10         -2.68210436                   0         -6.02972979
        12                   0                   0              -3.315
        13                -3.5                   0                .185
        14         -6.18210436                   0         -2.52972979
        16         -12.9220024                   0         -5.16746887
        17          9.89949493                   0         -9.71449493
        20          5.36420872                   0         -5.24445958
        21           5.3524687                   0         -12.7370025
        23          2.68210436                   0         -6.02972979
        26                   7                   0                .185
        28                 3.5                   0                .185
        29          6.18210436                   0         -2.52972979
# ... 304 like lines cut
#---1----|----2----|----3----|----4----|----5----|----6----|----7----|----8----|----9----|---10----|
#-  4. BOUNDARY CONDITIONS:
#---1----|----2----|----3----|----4----|----5----|----6----|----7----|----8----|----9----|---10----|
/BCS/1
bcs springs
#  Tra rot   skew_ID  grnod_ID
   111 111         0         5
/GRNOD/NODE/5
low spring extremity node
       526
#---1----|----2----|----3----|----4----|----5----|----6----|----7----|----8----|----9----|---10----|
/BCS/2
bcs valve
#  Tra rot   skew_ID  grnod_ID
   110 111         0     10545
/GRNOD/NODE/10545
valve rigid body master node
       525
#---1----|----2----|----3----|----4----|----5----|----6----|----7----|----8----|----9----|---10----|
/BCS/3
bcs cam
#  Tra rot   skew_ID  grnod_ID
   111 101         0     10538
/GRNOD/NODE/10538
cam rigid body master node
       529
#---1----|----2----|----3----|----4----|----5----|----6----|----7----|----8----|----9----|---10----|
#-  5. SKEWS & FRAMES:
#---1----|----2----|----3----|----4----|----5----|----6----|----7----|----8----|----9----|---10----|
/FRAME/FIX/1
NULL
#                 OX                  OY                  OZ
                   0                   9                .185
#                 X1                  Y1                  Z1
                   0                   1                   0
#                 X2                  Y2                  Z2
                  -1                   0                   0
#---1----|----2----|----3----|----4----|----5----|----6----|----7----|----8----|----9----|---10----|
#-  6. PARTS:
#---1----|----2----|----3----|----4----|----5----|----6----|----7----|----8----|----9----|---10----|
/PART/1
CAM
         1         1         0
#---1----|----2----|----3----|----4----|----5----|----6----|----7----|----8----|----9----|---10----|
# SHEL16 elements of /PART/1/CAM:
#---1----|----2----|----3----|----4----|----5----|----6----|----7----|----8----|----9----|---10----|
/SHEL16/1
        21        44        40        97       100        38        35        98        99
        48       129       104       132
        50       130       102       131
        22         4        45       108       107         2        36       105       106
        57       136       111       135
        55       133       109       134
        23        45        43       113       108        36        37       114       105
        60       137       115       136
        53       138       117       133
        24        40        41        43        44        97       118       113       100
        47        62        63        48
       119       121       120       104
        25        43        44       100       113        37        38        99       114
        63       132       120       137
        52       131       122       138
        26         4        45        42         1       107       108       124       123
        57        64        58        13
       111       127       126       125
        27        41        42        45        43       118       124       108       113
        46        64        60        62
# ... 100 like lines cut
#---1----|----2----|----3----|----4----|----5----|----6----|----7----|----8----|----9----|---10----|
/PART/2
VALVE
         1         1         0
#---1----|----2----|----3----|----4----|----5----|----6----|----7----|----8----|----9----|---10----|
# SHEL16 elements of /PART/2/VALVE:
#---1----|----2----|----3----|----4----|----5----|----6----|----7----|----8----|----9----|---10----|
/SHEL16/2
        61       402       401       404       403       457       433       436       458
       405       408       407       406
       437       440       439       461
        62       425       401       402       394       510       433       457       442
       411       405       413       428
       443       437       468       513
        63       430       404       401       425       515       436       433       510
       415       408       411       432
       447       440       443       517
        64       375       402       403       372       456       457       458       459
       376       406       378       379
       460       461       462       463
        65       375       393       394       402       456       487       442       457
       380       396       413       376
       466       490       468       460
        66       372       398       393       375       459       469       487       456
       383       400       380       379
       470       494       466       463
        67       418       385       388       419       503       479       482       504
       389       392       391       422
# ... 16 like lines cut
#---1----|----2----|----3----|----4----|----5----|----6----|----7----|----8----|----9----|---10----|
/PART/3
SPRING 1
         2         0         0
#---1----|----2----|----3----|----4----|----5----|----6----|----7----|----8----|----9----|---10----|
# SPRING elements of /PART/3/SPRING 1:
#---1----|----2----|----3----|----4----|----5----|----6----|----7----|----8----|----9----|---10----|
/SPRING/3
         1       525       526                                        
#---1----|----2----|----3----|----4----|----5----|----6----|----7----|----8----|----9----|---10----|
/PART/4
SPRING 2
         3         0         0
#---1----|----2----|----3----|----4----|----5----|----6----|----7----|----8----|----9----|---10----|
# SPRING elements of /PART/4/SPRING 2:
#---1----|----2----|----3----|----4----|----5----|----6----|----7----|----8----|----9----|---10----|
/SPRING/4
         2       525       526                                        
#---1----|----2----|----3----|----4----|----5----|----6----|----7----|----8----|----9----|---10----|
#-  7. GEOMETRICAL SETS:
#---1----|----2----|----3----|----4----|----5----|----6----|----7----|----8----|----9----|---10----|
/PROP/TYPE20/1
general solid
#   Isolid    Ismstr               Icpre     Icstr     Inpts      Iint                            dn
        16         0                   0         0         0         0                             0
#                q_a                 q_b                   h
                   0                   0                   0
#             dt_min
                   0
#---1----|----2----|----3----|----4----|----5----|----6----|----7----|----8----|----9----|---10----|
/PROP/SPRING/2
spring 1
#                  M                               sensor_ID    Isflag     Ileng
                  .1                                       0         0         0
#                  K                   C                   A                   B                   D
               30000                   0                   0                   0                   0
#funct_ID1         H funct_ID2 funct_ID3 funct_ID4                     delta_min           delta_max
         2         0         0         0         0                             0                   0
#            Fscale1                   E             Ascalex             HSCALE4
                   0                   0                   0                   0
#---1----|----2----|----3----|----4----|----5----|----6----|----7----|----8----|----9----|---10----|
/PROP/SPRING/3
spring 2
#                  M                               sensor_ID    Isflag     Ileng
                 .05                                       0         0         0
#                  K                   C                   A                   B                   D
               15000                   0                   0                   0                   0
#funct_ID1         H funct_ID2 funct_ID3 funct_ID4                     delta_min           delta_max
         3         0         0         0         0                             0                   0
#            Fscale1                   E             Ascalex             HSCALE4
                   0                   0                   0                   0
#---1----|----2----|----3----|----4----|----5----|----6----|----7----|----8----|----9----|---10----|
#-  8. FUNCTIONS:
#---1----|----2----|----3----|----4----|----5----|----6----|----7----|----8----|----9----|---10----|
/FUNCT/1
imposed cam rotation
#                  X                   Y
                   0                   1                                                            
                1000                   1                                                            
#---1----|----2----|----3----|----4----|----5----|----6----|----7----|----8----|----9----|---10----|
/FUNCT/2
stiffness spring 1
#                  X                   Y
                 -40            -1500000                                                            
                   0             -300000                                                            
                  50             1200000                                                            
#---1----|----2----|----3----|----4----|----5----|----6----|----7----|----8----|----9----|---10----|
/FUNCT/3
stiffness spring 2
#                  X                   Y
                 -40              -75000                                                            
                   0              -15000                                                            
#---1----|----2----|----3----|----4----|----5----|----6----|----7----|----8----|----9----|---10----|
#-  9. INITIAL VELOCITIES:
#---1----|----2----|----3----|----4----|----5----|----6----|----7----|----8----|----9----|---10----|
/INIVEL/AXIS/1
initial cam rotation
#      DIR  FRAME_ID  GRNOD_ID
         Y         1     10553
#                Vxt                 Vyt                 Vzt                  VR
                   0                   0                   0                 314
/GRNOD/NODE/10553
valve rigid body nodes
         2         3         4         5         6         7         8        10        12        13
        14        16        17        20        21        23        26        28        29        30
        32        35        36        37        38        40        43        44        45        47
        48        50        52        53        55        57        60        62        63        64
        67        68        70        72        73        76        77        79        81        82
        83        85        88        89        90        95        97        98        99       100
       102       104       105       106       107       108       109       111       113       114
       115       117       119       120       121       122       125       127       129       130
       131       132       133       134       135       136       137       138       142       143
       144       145       147       149       150       151       152       153       154       156
       158       159       160       162       164       165       166       167       170       172
       174       175       176       177       178       179       180       181       182       183
       187       188       189       190       191       193       197       199       202       203
       204       205       206       210       211       212       213       214       216       220
       222       225       226       227       228       229       233       236       237       239
       242       244       245       246       248       249       252       254       255       256
       259       260       262       265       267       268       269       271       272       275
       277       278       281       282       284       286       287       290       291       293
       295       296       297       299       302       303       304       309       313       314
       315       318       319       320       326       327       329       331       332       335
       336       338       340       341       342       344       347       348       349       354
       358       359       360       363       364       365       529
#---1----|----2----|----3----|----4----|----5----|----6----|----7----|----8----|----9----|---10----|
#- 10. SENSORS:
#---1----|----2----|----3----|----4----|----5----|----6----|----7----|----8----|----9----|---10----|
/SENSOR/TIME/1
time
#         Tdelay
                2E-4
#---1----|----2----|----3----|----4----|----5----|----6----|----7----|----8----|----9----|---10----|
#- 11. INTERFACES:
#---1----|----2----|----3----|----4----|----5----|----6----|----7----|----8----|----9----|---10----|
/INTER/LAGMUL/TYPE16/1
interface 16
# grnod_id   grbrick
     10536        14
#                        Itied
                             0
/GRNOD/NODE/10536
upper valve surface nodes
       372       375       376       378       379       380       383       385       388       389
       391       392       393       394       395       396       398       399       400       401
       402       403       404       405       406       407       408       411       413       415
       417       418       419       420       421       422       423       424       425       427
       428       429       430       431       432
/GRBRIC/BRIC/14
came external surface
        21        22        23        25        28        29        30        32        35        37
        38        40        41        43        44        46        47        48        49        51
        54        55        56        58
#---1----|----2----|----3----|----4----|----5----|----6----|----7----|----8----|----9----|---10----|
#- 12. RIGID BODIES:
#---1----|----2----|----3----|----4----|----5----|----6----|----7----|----8----|----9----|---10----|
/RBODY/1
valve rigid body
#     RBID     ISENS     NSKEW    ISPHER                MASS   Gnod_id     IKREM      ICOG   Surf_id
       525         0         0         0                   0         1         0         3         0
#                Jxx                 Jyy                 Jzz
                   0                   0                   0
#                Jxy                 Jyz                 Jxz
                   0                   0                   0
#Ioptoff
         0
/GRNOD/NODE/1
valve rigid body nodes
       433       436       437       439       440       442       443       447       456       457
       458       459       460       461       462       463       466       468       469       470
       479       482       483       485       487       489       490       493       494       502
       503       504       505       506       507       508       509       510       512       513
       514       515       516       517
#---1----|----2----|----3----|----4----|----5----|----6----|----7----|----8----|----9----|---10----|
/RBODY/2
cam rigid body
#     RBID     ISENS     NSKEW    ISPHER                MASS   Gnod_id     IKREM      ICOG   Surf_id
       529         0         0         1                   0     10551         0         3         0
#                Jxx                 Jyy                 Jzz
                   0                   0                   0
#                Jxy                 Jyz                 Jxz
                   0                   0                   0
#Ioptoff
         0
/GRNOD/NODE/10551
cam rigid body nodes
         1        41        42        46        58       118       123       124       126       128
       163       168       169       171       173
#---1----|----2----|----3----|----4----|----5----|----6----|----7----|----8----|----9----|---10----|
#- 13. IMPOSED VELOCITIES:
#---1----|----2----|----3----|----4----|----5----|----6----|----7----|----8----|----9----|---10----|
/IMPVEL/1
imposed cam rotation
#funct_IDT       Dir   skew_ID sensor_ID  grnod_ID  frame_ID     Icoor
         1        YY         0         1     10538         0         0
#           Ascale_x            Fscale_Y              Tstart               Tstop
                   0                 314                   0                   0
#---1----|----2----|----3----|----4----|----5----|----6----|----7----|----8----|----9----|---10----|
#- 14. TIME HISTORIES:
#---1----|----2----|----3----|----4----|----5----|----6----|----7----|----8----|----9----|---10----|
/TH/NODE/3
cam rigid body master node
#     var1      var2      var3      var4      var5      var6      var7      var8      var9     var10
ARY       DZ        VRY       
#    NODid     Iskew                                           NODname
       529         0masternode_came_group_0                                                         
       123         0masternode_came_group_1                                                         
#---1----|----2----|----3----|----4----|----5----|----6----|----7----|----8----|----9----|---10----|
/TH/NODE/4
valve rigid body master node
#     var1      var2      var3      var4      var5      var6      var7      var8      var9     var10
AZ        DZ        VZ        
#    NODid     Iskew                                           NODname
       525         0masternode_came_group_0                                                         
#---1----|----2----|----3----|----4----|----5----|----6----|----7----|----8----|----9----|---10----|
/TH/NODE/5
high extremity cam node
#     var1      var2      var3      var4      var5      var6      var7      var8      var9     var10
ARY       AX        AZ        DX        DZ        VRY       VX        VZ        
#    NODid     Iskew                                           NODname
        98         0masternode_came_group_0                                                         
#---1----|----2----|----3----|----4----|----5----|----6----|----7----|----8----|----9----|---10----|
/END
#---1----|----2----|----3----|----4----|----5----|----6----|----7----|----8----|----9----|---10----|
