#RADIOSS STARTER
#--------------------------------------------------------------------------------------------------|
#- RADIOSS DECK WRITTEN BY HyperCrash
#HyperCrash 2017 (64 bits) 
#Mon Apr 10 15:05:29 2017
#-
#
#
#-
#- DATE	Mon Apr 10 15:05:29 2017
#--------------------------------------------------------------------------------------------------|
#---1----|----2----|----3----|----4----|----5----|----6----|----7----|----8----|----9----|---10----|
/BEGIN
CBOX                                                                            
       140         0
                  kg                  mm                  ms
                  kg                  mm                  ms
#---1----|----2----|----3----|----4----|----5----|----6----|----7----|----8----|----9----|---10----|
#-  1. CONTROL CARDS:
#---1----|----2----|----3----|----4----|----5----|----6----|----7----|----8----|----9----|---10----|
/TITLE
Crashbox
#---1----|----2----|----3----|----4----|----5----|----6----|----7----|----8----|----9----|---10----|
/AMS
#grpart_ID
         0
#---1----|----2----|----3----|----4----|----5----|----6----|----7----|----8----|----9----|---10----|
/ANALY
#    N2D3D             IPARITH      ISUB
         0                   0         0
#---1----|----2----|----3----|----4----|----5----|----6----|----7----|----8----|----9----|---10----|
/DEF_SHELL
#   ISHELL    ISMSTR    ITHICK     IPLAS   ISTRAIN                        I_SH3N     IDRIL
         4         0         1         0         0                             1         0
#---1----|----2----|----3----|----4----|----5----|----6----|----7----|----8----|----9----|---10----|
/DEF_SOLID
#  I_SOLID    ISMSTR             ISTRAIN                                  IFRAME
         0         0                   0                                       0
#---1----|----2----|----3----|----4----|----5----|----6----|----7----|----8----|----9----|---10----|
/IOFLAG
#     IPRI               IGTYP     IOUTP    IOUTYY   IROOTYY     IDROT
         2                   0         0         0         0         0
#---1----|----2----|----3----|----4----|----5----|----6----|----7----|----8----|----9----|---10----|
/SPMD
#   DOMDEC     Nproc              Dkword             Nthread
         0         0                   0                   1
#---1----|----2----|----3----|----4----|----5----|----6----|----7----|----8----|----9----|---10----|
#-  2. MATERIALS:
#---1----|----2----|----3----|----4----|----5----|----6----|----7----|----8----|----9----|---10----|
/MAT/PLAS_TAB/1
steel_rail
#              RHO_I
             7.85E-6                   0
#                  E                  Nu           Eps_p_max               Eps_t               Eps_m
                 210                  .3                   0                   0                   0
#  N_funct  F_smooth              C_hard               F_cut               Eps_f
         1         0                   0                   0                   0
#  fct_IDp              Fscale   Fct_IDE                EInf                  CE
         0                   1         0                   0                   0
# func_ID1  func_ID2  func_ID3  func_ID4  func_ID5
         1
#           Fscale_1            Fscale_2            Fscale_3            Fscale_4            Fscale_5
                   0
#          Eps_dot_1           Eps_dot_2           Eps_dot_3           Eps_dot_4           Eps_dot_5
                   0
#---1----|----2----|----3----|----4----|----5----|----6----|----7----|----8----|----9----|---10----|
/MAT/PLAS_TAB/2
steel_rigidwall
#              RHO_I
             7.85E-6                   0
#                  E                  Nu           Eps_p_max               Eps_t               Eps_m
                 210                  .3                   0                   0                   0
#  N_funct  F_smooth              C_hard               F_cut               Eps_f
         1         0                   0                   0                   0
#  fct_IDp              Fscale   Fct_IDE                EInf                  CE
         0                   1         0                   0                   0
# func_ID1  func_ID2  func_ID3  func_ID4  func_ID5
         1
#           Fscale_1            Fscale_2            Fscale_3            Fscale_4            Fscale_5
                   0
#          Eps_dot_1           Eps_dot_2           Eps_dot_3           Eps_dot_4           Eps_dot_5
                   0
#---1----|----2----|----3----|----4----|----5----|----6----|----7----|----8----|----9----|---10----|
/MAT/PLAS_TAB/3
alu_bumper
#              RHO_I
              2.7E-6                   0
#                  E                  Nu           Eps_p_max               Eps_t               Eps_m
                  70                 .34                   0                   0                   0
#  N_funct  F_smooth              C_hard               F_cut               Eps_f
         1         0                   0                   0                   0
#  fct_IDp              Fscale   Fct_IDE                EInf                  CE
         0                   1         0                   0                   0
# func_ID1  func_ID2  func_ID3  func_ID4  func_ID5
         2
#           Fscale_1            Fscale_2            Fscale_3            Fscale_4            Fscale_5
                   0
#          Eps_dot_1           Eps_dot_2           Eps_dot_3           Eps_dot_4           Eps_dot_5
                   0
#---1----|----2----|----3----|----4----|----5----|----6----|----7----|----8----|----9----|---10----|
/MAT/PLAS_TAB/4
alu_crashbox
#              RHO_I
              2.7E-6                   0
#                  E                  Nu           Eps_p_max               Eps_t               Eps_m
                  70                 .34                   0                   0                   0
#  N_funct  F_smooth              C_hard               F_cut               Eps_f
         1         0                   0                   0                   0
#  fct_IDp              Fscale   Fct_IDE                EInf                  CE
         0                   1         0                   0                   0
# func_ID1  func_ID2  func_ID3  func_ID4  func_ID5
         3
#           Fscale_1            Fscale_2            Fscale_3            Fscale_4            Fscale_5
                   1
#          Eps_dot_1           Eps_dot_2           Eps_dot_3           Eps_dot_4           Eps_dot_5
                   0
#---1----|----2----|----3----|----4----|----5----|----6----|----7----|----8----|----9----|---10----|
/MAT/ELAST/5
steel_pureelastic_screw
#              RHO_I
             7.85E-6                   0
#                  E                  nu
                 210                  .3
#---1----|----2----|----3----|----4----|----5----|----6----|----7----|----8----|----9----|---10----|
#-  3. NODES:
#---1----|----2----|----3----|----4----|----5----|----6----|----7----|----8----|----9----|---10----|
/NODE
     19150          -322.99998         -445.992981          101.450028
     19151         -329.249985         -445.992983          101.450029
     19152         -329.249987         -452.442383          101.450029
     19153          -322.99998         -452.442383          101.450028
     19154         -335.499989         -445.992982          101.450029
     19155         -335.499994         -452.442383          101.450029
     19156         -322.999984         -439.543579          101.450028
     19157         -329.249985         -439.543582          101.450029
     19158         -335.499984          -439.54358          101.450029
     19159         -322.999993         -433.094178          101.450028
     19160         -329.249987          -433.09418          101.450029
     19161         -335.499979         -433.094179          101.450029
     19162          -323.00001         -411.893416          101.450028
     19163         -329.249992         -411.893412          101.450029
     19164         -335.499974         -411.893765          101.450029
     19165         -348.031243         -433.036682           101.45003
     19166         -341.765608         -433.047338           101.45003
     19167         -341.765608         -411.893387           101.45003
     19168         -348.031243         -411.893367           101.45003
     19169         -348.031243         -439.469909           101.45003
# ... 16870 like lines cut
#---1----|----2----|----3----|----4----|----5----|----6----|----7----|----8----|----9----|---10----|
#-  4. BOUNDARY CONDITIONS:
#---1----|----2----|----3----|----4----|----5----|----6----|----7----|----8----|----9----|---10----|
/BCS/1
fixed
#  Tra rot   skew_ID  grnod_ID
   111 111         0        11
/GRNOD/NODE/11
COG
    276081
#---1----|----2----|----3----|----4----|----5----|----6----|----7----|----8----|----9----|---10----|
/BCS/2
Rigid_Wall_move
#  Tra rot   skew_ID  grnod_ID
   011 111         0        12
/GRNOD/NODE/12
Rigid_Wall
    278966
#---1----|----2----|----3----|----4----|----5----|----6----|----7----|----8----|----9----|---10----|
#-  5. PARTS:
#---1----|----2----|----3----|----4----|----5----|----6----|----7----|----8----|----9----|---10----|
/PART/1
Bumper
         1         3         0
#---1----|----2----|----3----|----4----|----5----|----6----|----7----|----8----|----9----|---10----|
# SHELL elements of /PART/1/Bumper:
#---1----|----2----|----3----|----4----|----5----|----6----|----7----|----8----|----9----|---10----|
/SHELL/1
     13969    261187    261013    260752    261189                                                 0
     13970    261013    261014    260753    260752                                                 0
     13971    261014    261015    260754    260753                                                 0
     13972    261015    261016    260755    260754                                                 0
     13973    261016    261017    260756    260755                                                 0
     13974    261017    261018    260757    260756                                                 0
     13975    261018    261019    260758    260757                                                 0
     13976    261019    261020    260759    260758                                                 0
     13977    261020    261021    260760    260759                                                 0
     13978    261021    261022    260761    260760                                                 0
     13979    261022    261023    260762    260761                                                 0
     13980    261023    261024    260763    260762                                                 0
     13981    261024    261025    260764    260763                                                 0
     13982    261025    261026    260765    260764                                                 0
     13983    261026    261027    260766    260765                                                 0
     13984    261027    261028    260767    260766                                                 0
     13985    261028    261029    260768    260767                                                 0
     13986    261029    261030    260769    260768                                                 0
     13987    261030    261031    260770    260769                                                 0
     13988    261031    261032    260771    260770                                                 0
# ... 7724 like lines cut
#---1----|----2----|----3----|----4----|----5----|----6----|----7----|----8----|----9----|---10----|
/PART/2
Crashbox
         2         4         0
#---1----|----2----|----3----|----4----|----5----|----6----|----7----|----8----|----9----|---10----|
# SH3N elements of /PART/2/Crashbox:
#---1----|----2----|----3----|----4----|----5----|----6----|----7----|----8----|----9----|---10----|
/SH3N/2
         1    267196     19224     19222                                                           0
         2    267195    267114    267150                                                           0
         3    267195    267114     20285                                                           0
         4     19222     19219    267173                                                           0
         5    270897    272080    272082                                                           0
         6    270896    270851    270779                                                           0
         7    270896    273077    270779                                                           0
         8    272080    270874    272077                                                           0
#---1----|----2----|----3----|----4----|----5----|----6----|----7----|----8----|----9----|---10----|
# SHELL elements of /PART/2/Crashbox:
#---1----|----2----|----3----|----4----|----5----|----6----|----7----|----8----|----9----|---10----|
/SHELL/2
      7761    265573    265581     19796     19799                                                 0
      7762    265581    265582     19795     19796                                                 0
      7763    265582    265583     19739     19795                                                 0
      7764    265583    265562     19738     19739                                                 0
      7765    265584    265585    265578    265579                                                 0
      7766    266919    266920    267013    267012                                                 0
      7767    267013    266920    266921    267014                                                 0
      7768    265585    265574    265575    265578                                                 0
      7769    265582    265581    265585    265584                                                 0
      7770    265581    265573    265574    265585                                                 0
      7771    265561    265586    265580    265560                                                 0
      7772    265586    265584    265579    265580                                                 0
      7773    265562    265583    265586    265561                                                 0
      7774    265583    265582    265584    265586                                                 0
      7775    265576    265587    265578    265575                                                 0
      7776    265587    265588    265579    265578                                                 0
      7777    265588    265589    265580    265579                                                 0
      7778    265589    265559    265560    265580                                                 0
      7779    265590    265591     19869     19870                                                 0
      7780    265591    265577     19873     19869                                                 0
# ... 3508 like lines cut
#---1----|----2----|----3----|----4----|----5----|----6----|----7----|----8----|----9----|---10----|
/PART/3
Rail
         3         1         0
#---1----|----2----|----3----|----4----|----5----|----6----|----7----|----8----|----9----|---10----|
# SH3N elements of /PART/3/Rail:
#---1----|----2----|----3----|----4----|----5----|----6----|----7----|----8----|----9----|---10----|
/SH3N/3
         9    268041    268101    268103                                                           0
        10    268040    267998    267962                                                           0
        11    268040    268863    267962                                                           0
        12    268101    268020    268098                                                           0
        13    272547    272725    272711                                                           0
        14    272546    272215    272257                                                           0
        15    272546    272215    273863                                                           0
        16    272711    272705    272441                                                           0
#---1----|----2----|----3----|----4----|----5----|----6----|----7----|----8----|----9----|---10----|
# SHELL elements of /PART/3/Rail:
#---1----|----2----|----3----|----4----|----5----|----6----|----7----|----8----|----9----|---10----|
/SHELL/3
     11289    267213    268497    268494    267221                                                 0
     11290    267221    268494    268493    267222                                                 0
     11291    267222    268493    268458    267223                                                 0
     11292    267223    268458    268457    267202                                                 0
     11293    267224    267219    267218    267225                                                 0
     11294    267835    267860    267861    267836                                                 0
     11295    267861    267862    267837    267836                                                 0
     11296    267225    267218    267215    267214                                                 0
     11297    267222    267224    267225    267221                                                 0
     11298    267221    267225    267214    267213                                                 0
     11299    267201    267200    267220    267226                                                 0
     11300    267226    267220    267219    267224                                                 0
     11301    267202    267201    267226    267223                                                 0
     11302    267223    267226    267224    267222                                                 0
     11303    267216    267215    267218    267227                                                 0
     11304    267227    267218    267219    267228                                                 0
     11305    267228    267219    267220    267229                                                 0
     11306    267229    267220    267200    267199                                                 0
     11307    267230    268563    268562    267231                                                 0
     11308    267231    268562    268564    267217                                                 0
# ... 2660 like lines cut
#---1----|----2----|----3----|----4----|----5----|----6----|----7----|----8----|----9----|---10----|
/PART/4
Rigid Wall
         4         2         0
#---1----|----2----|----3----|----4----|----5----|----6----|----7----|----8----|----9----|---10----|
# SHELL elements of /PART/4/Rigid Wall:
#---1----|----2----|----3----|----4----|----5----|----6----|----7----|----8----|----9----|---10----|
/SHELL/4
    272604    276439    276443    276435    276436                                                 0
    272605    276443    276430    276431    276435                                                 0
    272606    276440    276442    276443    276439                                                 0
    272607    276442    276429    276430    276443                                                 0
    272608    276441    276444    276442    276440                                                 0
    272609    276444    276428    276429    276442                                                 0
    272610    276421    276422    276444    276441                                                 0
    272611    276422    276423    276428    276444                                                 0
    272612    276408    276445    276447    276407                                                 0
    272613    276407    276447    276438    276406                                                 0
    272614    276439    276448    276446    276440                                                 0
    272615    276448    276447    276445    276446                                                 0
    272616    276436    276437    276448    276439                                                 0
    272617    276437    276438    276447    276448                                                 0
    272618    276410    276419    276449    276409                                                 0
    272619    276409    276449    276445    276408                                                 0
    272620    276441    276450    276420    276421                                                 0
    272621    276450    276449    276419    276420                                                 0
    272622    276440    276446    276450    276441                                                 0
    272623    276446    276445    276449    276450                                                 0
# ... 2734 like lines cut
#---1----|----2----|----3----|----4----|----5----|----6----|----7----|----8----|----9----|---10----|
/PART/6
Spotweld
         5         0         0
#---1----|----2----|----3----|----4----|----5----|----6----|----7----|----8----|----9----|---10----|
# SPRING Connexion elements of /PART/6/Spotweld:
#---1----|----2----|----3----|----4----|----5----|----6----|----7----|----8----|----9----|---10----|
/SPRING/6
    275385    278991    278992                                        
    275388    278993    278994                                        
    275391    278995    278996                                        
    275394    278997    278998                                        
    275397    278999    279000                                        
    275400    279001    279002                                        
    275403    279003    279004                                        
    275406    279005    279006                                        
    275409    279007    279008                                        
    275412    279009    279010                                        
    275415    279011    279012                                        
    275418    279013    279014                                        
    275421    279015    279016                                        
    275424    279017    279018                                        
    275427    279019    279020                                        
    275430    279021    279022                                        
#---1----|----2----|----3----|----4----|----5----|----6----|----7----|----8----|----9----|---10----|
#-  2. GEOMETRICAL SETS:
#---1----|----2----|----3----|----4----|----5----|----6----|----7----|----8----|----9----|---10----|
/PROP/SHELL/1
2.5mm_bumper
#   Ishell    Ismstr     Ish3n    Idrill
        24         0         0         0
#                 hm                  hf                  hr                  dm                  dn
                   0                   0                   0                   0                   0
#        N   Istrain               Thick              Ashear              Ithick     Iplas
         5         1                 2.5                   0                   1         1
#---1----|----2----|----3----|----4----|----5----|----6----|----7----|----8----|----9----|---10----|
/PROP/SHELL/2
2.5mm_crashbox
#   Ishell    Ismstr     Ish3n    Idrill
        24         0         0         0
#                 hm                  hf                  hr                  dm                  dn
                   0                   0                   0                   0                   0
#        N   Istrain               Thick              Ashear              Ithick     Iplas
         5         1                   2                   0                   1         1
#---1----|----2----|----3----|----4----|----5----|----6----|----7----|----8----|----9----|---10----|
/PROP/SHELL/3
4.2mm_rail
#   Ishell    Ismstr     Ish3n    Idrill
        24         0         0         0
#                 hm                  hf                  hr                  dm                  dn
                   0                   0                   0                   0                   0
#        N   Istrain               Thick              Ashear              Ithick     Iplas
         5         1                 4.2                   0                   1         1
#---1----|----2----|----3----|----4----|----5----|----6----|----7----|----8----|----9----|---10----|
/PROP/SHELL/4
0.1mm_wall
#   Ishell    Ismstr     Ish3n    Idrill
         1         0         0         0
#                 hm                  hf                  hr                  dm                  dn
                   0                   0                   0                   0                   0
#        N   Istrain               Thick              Ashear              Ithick     Iplas
         5         1                  .1                   0                   1         1
#---1----|----2----|----3----|----4----|----5----|----6----|----7----|----8----|----9----|---10----|
/PROP/SPR_BEAM/5
spotweld
#               Mass             Inertia   skew_ID   sens_ID    Isflag     Ifail     Ileng    Ifail2
                1E-4                .001         0         0         0         0         0         0
#              KTens               CTens               ATens               BTens               DTens
                1000                   0                   0                   0                   0
#  fct_ID1     HTens   fct_ID2   fct_ID3   fct_ID4                 delta_minTens       delta_maxTens
         0         0         0         0         0                             0                   0
#                  F                   E              Ascale             Hscalex
                   0                   0                   0                   0
#              KTens               CTens               ATens               BTens               DTens
                1000                   0                   0                   0                   0
#  fct_ID1     HTens   fct_ID2   fct_ID3   fct_ID4                 delta_minTens       delta_maxTens
         0         0         0         0         0                             0                   0
#                  F                   E              Ascale             Hscalex
                   0                   0                   0                   0
#              KTens               CTens               ATens               BTens               DTens
                1000                   0                   0                   0                   0
#  fct_ID1     HTens   fct_ID2   fct_ID3   fct_ID4                 delta_minTens       delta_maxTens
         0         0         0         0         0                             0                   0
#                  F                   E              Ascale             Hscalex
                   0                   0                   0                   0
#                  K                   C                   A                   B                   D
                1000                   0                   0                   0                   0
#       N1         H        N2        N3        N4                     theta_min           theta_max
         0         0         0         0         0                             0                   0
#                  F                   E              Ascale             Hscalex
                   0                   0                   0                   0
#                  K                   C                   A                   B                   D
                1000                   0                   0                   0                   0
#       N1         H        N2        N3        N4                     theta_min           theta_max
         0         0         0         0         0                             0                   0
#                  F                   E              Ascale             Hscalex
                   0                   0                   0                   0
#                  K                   C                   A                   B                   D
                1000                   0                   0                   0                   0
#       N1         H        N2        N3        N4                     theta_min           theta_max
         0         0         0         0         0                             0                   0
#                  F                   E              Ascale             Hscalex
                   0                   0                   0                   0
#                 V0              Omega0
                   0                   0
#                  C                   n               alpha                beta
                   0                   0                   0                   0
                   0                   0                   0                   0
                   0                   0                   0                   0
                   0                   0                   0                   0
                   0                   0                   0                   0
                   0                   0                   0                   0
#---1----|----2----|----3----|----4----|----5----|----6----|----7----|----8----|----9----|---10----|
#-  3. FUNCTIONS:
#---1----|----2----|----3----|----4----|----5----|----6----|----7----|----8----|----9----|---10----|
/FUNCT/1
steel
#                  X                   Y
                   0                .275                                                            
                .003                  .5                                                            
                 .01                  .7                                                            
                .019                  .9                                                            
                .025                 1.1                                                            
                .034                 1.3                                                            
                 .04                 1.6                                                            
                 .05                1.75                                                            
#---1----|----2----|----3----|----4----|----5----|----6----|----7----|----8----|----9----|---10----|
/FUNCT/2
alu_bumper
#                  X                   Y
                   0                 .25                                                            
                .005                .261                                                            
                 .01                .268                                                            
                .015                 .27                                                            
                 .02                .273                                                            
                 .03                .279                                                            
                 .04                .282                                                            
#---1----|----2----|----3----|----4----|----5----|----6----|----7----|----8----|----9----|---10----|
/FUNCT/3
alu_crashbox
#                  X                   Y
                   0                 .25                                                            
                .005                .261                                                            
                 .01                .268                                                            
                .015                 .27                                                            
                 .02                .273                                                            
                 .03                .279                                                            
                 .04                .282                                                            
#---1----|----2----|----3----|----4----|----5----|----6----|----7----|----8----|----9----|---10----|
/FUNCT/4
New FUNCT 4
#                  X                   Y
                   0                   0                                                            
                  20                  81                                                            
#---1----|----2----|----3----|----4----|----5----|----6----|----7----|----8----|----9----|---10----|
#-  4. INTERFACES:
#---1----|----2----|----3----|----4----|----5----|----6----|----7----|----8----|----9----|---10----|
/INTER/TYPE2/1
Spotweld_Contact
#  Slav_id   Surf_id    Ignore  Spotflag     Level   Isearch      Idel                       Dsearch
         4         3         0         0         0         0         0                            .5
/GRNOD/NODE/4
Spotweld_Slave
    278991    278992    278993    278994    278995    278996    278997    278998    278999    279000
    279001    279002    279003    279004    279005    279006    279007    279008    279009    279010
    279011    279012    279013    279014    279015    279016    279017    279018    279019    279020
    279021    279022
/SURF/PART/3
Spotweld_Master
         1         2
#---1----|----2----|----3----|----4----|----5----|----6----|----7----|----8----|----9----|---10----|
/INTER/TYPE7/2
Bumper to Wall
#  Slav_id   Mast_id      Istf      Ithe      Igap                Ibag      Idel     Icurv      Iadm
         6         5         0         0         0                   0         0         0         0
#          Fscalegap             Gap_max             Fpenmax
                   0                   0                   0
#              Stmin               Stmax          %mesh_size               dtmin  Irem_gap   Irem_i2
                   0                   0                   0                   0         0         0
#              Stfac                Fric              Gapmin              Tstart               Tstop
                   0                  .3                  .9                   0                   0
#      IBC                        Inacti                VisS                VisF              Bumult
       000                             0                   0                   0                   0
#    Ifric    Ifiltr               Xfreq     Iform   sens_ID   fct_IDf             AscaleF
         0         0                   0         0         0         0                   0
/GRNOD/PART/6
Contact_Slave_Bumper
         1
/SURF/PART/5
Contact_Master_Wall
         4
#---1----|----2----|----3----|----4----|----5----|----6----|----7----|----8----|----9----|---10----|
/INTER/TYPE7/3
Crashbox to Bumper
#  Slav_id   Mast_id      Istf      Ithe      Igap                Ibag      Idel     Icurv      Iadm
         8         7         0         0         0                   0         0         0         0
#          Fscalegap             Gap_max             Fpenmax
                   0                   0                   0
#              Stmin               Stmax          %mesh_size               dtmin  Irem_gap   Irem_i2
                   0                   0                   0                   0         0         0
#              Stfac                Fric              Gapmin              Tstart               Tstop
                   0                  .3                 2.4                   0                   0
#      IBC                        Inacti                VisS                VisF              Bumult
       000                             0                   0                   0                   0
#    Ifric    Ifiltr               Xfreq     Iform   sens_ID   fct_IDf             AscaleF
         0         0                   0         0         0         0                   0
/GRNOD/PART/8
Contact_Slave_Crashbox
         2
/SURF/PART/7
Contact_Master_Bumper
         1
#---1----|----2----|----3----|----4----|----5----|----6----|----7----|----8----|----9----|---10----|
/INTER/TYPE7/4
Rail to Crashbox
#  Slav_id   Mast_id      Istf      Ithe      Igap                Ibag      Idel     Icurv      Iadm
        10         9         0         0         0                   0         0         0         0
#          Fscalegap             Gap_max             Fpenmax
                   0                   0                   0
#              Stmin               Stmax          %mesh_size               dtmin  Irem_gap   Irem_i2
                   0                   0                   0                   0         0         0
#              Stfac                Fric              Gapmin              Tstart               Tstop
                   0                  .3                 2.9                   0                   0
#      IBC                        Inacti                VisS                VisF              Bumult
       000                             0                   0                   0                   0
#    Ifric    Ifiltr               Xfreq     Iform   sens_ID   fct_IDf             AscaleF
         0         0                   0         0         0         0                   0
/GRNOD/PART/10
Contact_Slave_Rail
         3
/SURF/PART/9
Contact_Master_Crashbox
         2
#---1----|----2----|----3----|----4----|----5----|----6----|----7----|----8----|----9----|---10----|
/INTER/TYPE7/5
Crashbox to Crashbox
#  Slav_id   Mast_id      Istf      Ithe      Igap                Ibag      Idel     Icurv      Iadm
         8         9         0         0         0                   0         0         0         0
#          Fscalegap             Gap_max             Fpenmax
                   0                   0                   0
#              Stmin               Stmax          %mesh_size               dtmin  Irem_gap   Irem_i2
                   0                   0                   0                   0         0         0
#              Stfac                Fric              Gapmin              Tstart               Tstop
                   0                  .3                   0                   0                   0
#      IBC                        Inacti                VisS                VisF              Bumult
       000                             0                   0                   0                   0
#    Ifric    Ifiltr               Xfreq     Iform   sens_ID   fct_IDf             AscaleF
         0         0                   0         0         0         0                   0
#---1----|----2----|----3----|----4----|----5----|----6----|----7----|----8----|----9----|---10----|
#-  5. RIGID BODIES:
#---1----|----2----|----3----|----4----|----5----|----6----|----7----|----8----|----9----|---10----|
/RBODY/275361
NULL
#     RBID     ISENS     NSKEW    ISPHER                MASS   Gnod_id     IKREM      ICOG   Surf_id
    278958         0         0         0                   0        16         0         0         0
#                Jxx                 Jyy                 Jzz
                   0                   0                   0
#                Jxy                 Jyz                 Jxz
                   0                   0                   0
#Ioptoff
         0
/GRNOD/NODE/16
NULL
    267112    267144    267145    267146    267960    267992    267993    267994
#---1----|----2----|----3----|----4----|----5----|----6----|----7----|----8----|----9----|---10----|
/RBODY/275362
NULL
#     RBID     ISENS     NSKEW    ISPHER                MASS   Gnod_id     IKREM      ICOG   Surf_id
    278959         0         0         0                   0        17         0         0         0
#                Jxx                 Jyy                 Jzz
                   0                   0                   0
#                Jxy                 Jyz                 Jxz
                   0                   0                   0
#Ioptoff
         0
/GRNOD/NODE/17
NULL
    267053    267054    267186    267187    267901    267902    268033    268034
#---1----|----2----|----3----|----4----|----5----|----6----|----7----|----8----|----9----|---10----|
/RBODY/275363
NULL
#     RBID     ISENS     NSKEW    ISPHER                MASS   Gnod_id     IKREM      ICOG   Surf_id
    278960         0         0         0                   0        18         0         0         0
#                Jxx                 Jyy                 Jzz
                   0                   0                   0
#                Jxy                 Jyz                 Jxz
                   0                   0                   0
#Ioptoff
         0
/GRNOD/NODE/18
NULL
    267012    267013    267152    267153    267860    267861    268000    268001
#---1----|----2----|----3----|----4----|----5----|----6----|----7----|----8----|----9----|---10----|
/RBODY/275364
NULL
#     RBID     ISENS     NSKEW    ISPHER                MASS   Gnod_id     IKREM      ICOG   Surf_id
    278961         0         0         0                   0        19         0         0         0
#                Jxx                 Jyy                 Jzz
                   0                   0                   0
#                Jxy                 Jyz                 Jxz
                   0                   0                   0
#Ioptoff
         0
/GRNOD/NODE/19
NULL
    267074    267075    267076    267170    267922    267923    267924    268018
#---1----|----2----|----3----|----4----|----5----|----6----|----7----|----8----|----9----|---10----|
/RBODY/275365
NULL
#     RBID     ISENS     NSKEW    ISPHER                MASS   Gnod_id     IKREM      ICOG   Surf_id
    278962         0         0         0                   0        20         0         0         0
#                Jxx                 Jyy                 Jzz
                   0                   0                   0
#                Jxy                 Jyz                 Jxz
                   0                   0                   0
#Ioptoff
         0
/GRNOD/NODE/20
NULL
    270718    270719    270887    270888    271856    271857    272530    272536
#---1----|----2----|----3----|----4----|----5----|----6----|----7----|----8----|----9----|---10----|
/RBODY/275366
NULL
#     RBID     ISENS     NSKEW    ISPHER                MASS   Gnod_id     IKREM      ICOG   Surf_id
    278963         0         0         0                   0        21         0         0         0
#                Jxx                 Jyy                 Jzz
                   0                   0                   0
#                Jxy                 Jyz                 Jxz
                   0                   0                   0
#Ioptoff
         0
/GRNOD/NODE/21
NULL
    270777    270845    270846    270847    272213    272251    272252    272253
#---1----|----2----|----3----|----4----|----5----|----6----|----7----|----8----|----9----|---10----|
/RBODY/275367
NULL
#     RBID     ISENS     NSKEW    ISPHER                MASS   Gnod_id     IKREM      ICOG   Surf_id
    278964         0         0         0                   0        22         0         0         0
#                Jxx                 Jyy                 Jzz
                   0                   0                   0
#                Jxy                 Jyz                 Jxz
                   0                   0                   0
#Ioptoff
         0
/GRNOD/NODE/22
NULL
    270677    270678    270853    270854    271639    271640    272259    272260
#---1----|----2----|----3----|----4----|----5----|----6----|----7----|----8----|----9----|---10----|
/RBODY/275368
NULL
#     RBID     ISENS     NSKEW    ISPHER                MASS   Gnod_id     IKREM      ICOG   Surf_id
    278965         0         0         0                   0        23         0         0         0
#                Jxx                 Jyy                 Jzz
                   0                   0                   0
#                Jxy                 Jyz                 Jxz
                   0                   0                   0
#Ioptoff
         0
/GRNOD/NODE/23
NULL
    270739    270740    270741    270871    272124    272125    272126    272439
#---1----|----2----|----3----|----4----|----5----|----6----|----7----|----8----|----9----|---10----|
/RBODY/275369
NULL
#     RBID     ISENS     NSKEW    ISPHER                MASS   Gnod_id     IKREM      ICOG   Surf_id
    276081         0         0         0                1400        24         0         4         0
#                Jxx                 Jyy                 Jzz
             2000000             2000000             2000000
#                Jxy                 Jyz                 Jxz
                   0                   0                   0
#Ioptoff
         0
/GRNOD/NODE/24
NULL
    267199    267200    267201    267202    267203    267204    267205    267206    267208    267209
    267210    267211    267213    267214    267215    267216    267218    267219    267220    267221
    267222    267223    267224    267225    267226    267227    267228    267229    267233    267234
    267235    267236    267237    267238    267239    267240    267241    267242    267243    267244
    267246    267248    267251    267252    267253    267254    267255    267256    267258    267259
    267260    267261    267262    267263    267264    267265    267266    267267    267268    267269
    267271    267273    267276    267277    267278    267279    267280    267281    267282    267283
    267284    267285    267286    267287    267288    267289    267291    267293    267296    267297
    267299    267300    267301    267302    267303    267304    267305    267306    267308    267309
    267310    267311    267313    267314    267315    267316    267317    267318    267319    267320
    267321    267323    267325    267327    267328    267329    267330    267331    267332    267333
    267334    267335    267336    267337    267338    267339    267341    267343    267346    267347
    267348    267349    267350    267351    267354    267359    267360    267361    267362    267364
    267365    267366    267367    267368    267369    267370    267374    267375    267376    267377
    267378    267379    267380    267381    267382    267383    267384    267385    267386    267387
    267389    267391    267392    267395    267396    267397    267398    267399    267400    267401
    267402    267404    267405    267406    267407    267408    267409    267410    267411    267413
    267415    267417    267418    267419    267420    267421    267422    267423    267424    267425
    267426    267427    267429    267431    267432    267435    267436    267437    267438    267439
    267440    267441    267442    267454    267455    267456    267457    267458    267459    267460
# ... 48 like lines cut
#---1----|----2----|----3----|----4----|----5----|----6----|----7----|----8----|----9----|---10----|
/RBODY/275370
NULL
#     RBID     ISENS     NSKEW    ISPHER                MASS   Gnod_id     IKREM      ICOG   Surf_id
    278966         0         0         0                 100         2         0         0         0
#                Jxx                 Jyy                 Jzz
               10000               10000               10000
#                Jxy                 Jyz                 Jxz
                   0                   0                   0
#Ioptoff
         0
/GRNOD/NODE/2
rw_nodeset
    276088    276089    276090    276091    276092    276093    276094    276095    276096    276097
    276098    276099    276100    276101    276102    276103    276104    276105    276106    276107
    276108    276109    276110    276111    276112    276113    276114    276115    276116    276117
    276118    276119    276120    276121    276122    276123    276124    276125    276126    276127
    276128    276129    276130    276131    276132    276133    276134    276135    276136    276137
    276138    276139    276140    276141    276142    276143    276144    276145    276146    276147
    276148    276149    276150    276151    276152    276153    276154    276155    276156    276157
    276158    276159    276160    276161    276162    276163    276164    276165    276166    276167
    276168    276169    276170    276171    276172    276173    276174    276175    276176    276177
    276178    276179    276180    276181    276182    276183    276184    276185    276186    276187
    276188    276189    276190    276191    276192    276193    276194    276195    276196    276197
    276198    276199    276200    276201    276202    276203    276204    276205    276206    276207
    276208    276209    276210    276211    276212    276213    276214    276215    276216    276217
    276218    276219    276220    276221    276222    276223    276224    276225    276226    276227
    276228    276229    276230    276231    276232    276233    276234    276235    276236    276237
    276238    276239    276240    276241    276242    276243    276244    276245    276246    276247
    276248    276249    276250    276251    276252    276253    276254    276255    276256    276257
    276258    276259    276260    276261    276262    276263    276264    276265    276266    276267
    276268    276269    276270    276271    276272    276273    276274    276275    276276    276277
    276278    276279    276280    276281    276282    276283    276284    276285    276286    276287
# ... 267 like lines cut
#---1----|----2----|----3----|----4----|----5----|----6----|----7----|----8----|----9----|---10----|
#-  6. IMPOSED DISPLACEMENTS:
#---1----|----2----|----3----|----4----|----5----|----6----|----7----|----8----|----9----|---10----|
/IMPDISP/1
New IMPDISP 1
#   Ifunct       DIR     Iskew   Isensor   Gnod_id     Frame     Icoor
         4         X         0         0       102         0         0
#            Scale_x             Scale_y              Tstart               Tstop
                   1                   1                   0                   0
/GRNOD/NODE/102
IMPDISP_group_102_of_NODE
    278966
#---1----|----2----|----3----|----4----|----5----|----6----|----7----|----8----|----9----|---10----|
#-  7. SECTIONS:
#---1----|----2----|----3----|----4----|----5----|----6----|----7----|----8----|----9----|---10----|
/SECT/8
Force in Crashbox
# node_ID1  node_ID2  node_ID3  grnod_ID    I_SAVE  Frame_ID                  Dt               alpha
    266374    266372    266454        15         0         0                   0                   0
# File name
                                                                                                    
# grbricID           grshel_ID  grrus_ID grbeam_ID grsprinID grtrianID    Ninter              Iframe
         0                  16         0         0         0         0         0                   0
/GRNOD/NODE/15
Node_Output_Crashbox
    265559    265566    265571    265576    265587    265588    265589    265606    265608    265611
    265612    265616    265631    265633    265636    265637    265651    265653    265656    265657
    265659    265671    265683    265685    265687    265701    265703    265706    265707    265711
    265719    265724    265734    265735    265736    265747    265749    265751    265752    265764
    265771    265773    265775    265787    265789    265791    265792    265814    265822    265824
    265826    265827    265842    265844    265846    265847    266152    266173    266232    266233
    266275    266276    266374    266395    266454    266455    266497    266498
/GRSHEL/SHEL/16
Element_Output_Crashbox
      7781      7782      7785      7786      7806      7807      7816      7819      7820      7840
      7841      7848      7851      7852      7870      7871      7878      7881      7882      7897
      7898      7903      7924      7972      7975      7976      8021      8022      8025      8026
      8043      8047      8056      8057      8075      8076      8090      8093      8094      8112
      8113      8118      8119      8216      8217      8236      8239      8240      8346      8347
      8350      8351      8379      8382      8392      8395      8423      8430      8433      8434
      8986      8987      8988      8989      9280      9281      9282      9283
#---1----|----2----|----3----|----4----|----5----|----6----|----7----|----8----|----9----|---10----|
/SECT/PARAL/9
force_in_Rail
# node_ID1  node_ID2  node_ID3              I_SAVE                            Dt               alpha
    267340    267292    267272                   2                            .1                   0
# File name
Rail_section                                                                                        
# grbricID           grshel_ID grtrus_ID grbeam_ID grsprinID grtrianID    Ninter              Iframe
         0                  91         0         0         0         0         0                   0
#                 XM                  YM                  ZM
                -250                -550                  50
#                XM1                 YM1                 ZM1
                -250                -300                  50
#                XM2                 YM2                 ZM2
                -250                -550                 250
/GRSHEL/PART/91
PART_GROUP_OF_RAIL
         3
#---1----|----2----|----3----|----4----|----5----|----6----|----7----|----8----|----9----|---10----|
/SECT/PARAL/10
force_in_bumper
# node_ID1  node_ID2  node_ID3              I_SAVE                            Dt               alpha
    271861    271439    271150                   2                            .1                   0
# File name
bumper_section                                                                                      
# grbricID           grshel_ID grtrus_ID grbeam_ID grsprinID grtrianID    Ninter              Iframe
         0                 101         0         0         0         0         0                   0
#                 XM                  YM                  ZM
                -550                  30                 300
#                XM1                 YM1                 ZM1
                -400                  30                 300
#                XM2                 YM2                 ZM2
                -550                  30                  50
/GRSHEL/PART/101
PART_GROUP_OF_BUMPER
         1
#---1----|----2----|----3----|----4----|----5----|----6----|----7----|----8----|----9----|---10----|
#-  8. 4 NODE SHELL GROUPS:
#---1----|----2----|----3----|----4----|----5----|----6----|----7----|----8----|----9----|---10----|
/GRSHEL/SHEL/17
Element_Output_Rail
     11485     11491     11492     11539     11540     11753     11754     11759     11760     11773
     11774     11779     11780     11808     11814     11815     11864     11865     12080     12081
     12086     12087     12100     12101     12106     12107     12133     12139     12140     12181
     12187     12188     12235     12236     12326     12327     12328     12329     12449     12450
     12455     12456     12469     12470     12475     12476     12511     12512     12604     12605
     12606     12607     12726     12727     12732     12733     12746     12747     12752     12753
     12756     12757     12758     12759     12852     12853     12854     12855
#---1----|----2----|----3----|----4----|----5----|----6----|----7----|----8----|----9----|---10----|
#-  9. NODE GROUPS:
#---1----|----2----|----3----|----4----|----5----|----6----|----7----|----8----|----9----|---10----|
/GRNOD/NODE/13
Init_Vel
     19150     19151     19152     19153     19154     19155     19156     19157     19158     19159
     19160     19161     19162     19163     19164     19165     19166     19167     19168     19169
     19170     19171     19172     19173     19174     19175     19176     19177     19178     19179
     19180     19181     19182     19183     19184     19185     19186     19187     19188     19189
     19190     19191     19192     19193     19194     19195     19196     19197     19198     19199
     19200     19201     19202     19203     19204     19219     19220     19221     19222     19223
     19224     19225     19226     19227     19228     19229     19230     19231     19232     19233
     19234     19235     19236     19237     19238     19239     19240     19241     19242     19243
     19244     19245     19246     19247     19248     19249     19250     19251     19252     19253
     19254     19255     19256     19257     19258     19259     19260     19261     19262     19263
     19264     19272     19273     19274     19275     19276     19277     19278     19279     19280
     19281     19282     19283     19284     19285     19286     19287     19288     19289     19290
     19291     19292     19293     19294     19295     19296     19297     19298     19299     19300
     19301     19302     19303     19304     19305     19306     19309     19310     19314     19315
     19316     19317     19320     19321     19322     19323     19328     19329     19330     19339
     19342     19343     19378     19379     19380     19381     19382     19383     19405     19406
     19407     19408     19409     19410     19411     19412     19413     19414     19415     19416
     19417     19418     19419     19420     19421     19422     19423     19424     19425     19426
     19427     19428     19429     19430     19431     19432     19433     19434     19435     19436
     19437     19438     19439     19440     19441     19442     19443     19444     19445     19446
# ... 1382 like lines cut
#---1----|----2----|----3----|----4----|----5----|----6----|----7----|----8----|----9----|---10----|
/GRNOD/NODE/14
Node_Output_Rail
    267448    267518    267559    267560    267608    267609    267644    267668    267708    267711
    267758    267759    268084    268085    268087    268093    268094    268140    268141    268297
    268298    268299    268302    268303    268309    268310    268312    268347    268348    268350
    268355    268405    268406    268555    268556    268557    268560    268561    268567    268568
    268570    268605    268606    268608    268614    268615    268651    268652    268654    268659
    268701    268702    268846    268847    268848    268850    268856    268857    268859    268899
    268900    269035    269036    269037    269039    269045    269046    269048
#---1----|----2----|----3----|----4----|----5----|----6----|----7----|----8----|----9----|---10----|
#- 10. TIME HISTORIES:
#---1----|----2----|----3----|----4----|----5----|----6----|----7----|----8----|----9----|---10----|
/TH/SECTIO/1
Force in structure
#     var1      var2      var3      var4      var5      var6      var7      var8      var9     var10
DEF        DFX       DFY       DFZ       DMX       DMY       DMZ     
#     Obj1      Obj2      Obj3      Obj4      Obj5      Obj6      Obj7      Obj8      Obj9     Obj10
         8         9        10
#---1----|----2----|----3----|----4----|----5----|----6----|----7----|----8----|----9----|---10----|
/TH/NODE/2
COF
#     var1      var2      var3      var4      var5      var6      var7      var8      var9     var10
DEF       
#    NODid     Iskew                                           NODname
    276081         0COG                                                                             
#---1----|----2----|----3----|----4----|----5----|----6----|----7----|----8----|----9----|---10----|
/TH/PART/3
energy crashbox
#     var1      var2      var3      var4      var5      var6      var7      var8      var9     var10
DEF       
#     Obj1      Obj2      Obj3      Obj4      Obj5      Obj6      Obj7      Obj8      Obj9     Obj10
         2
#---1----|----2----|----3----|----4----|----5----|----6----|----7----|----8----|----9----|---10----|
/TH/PART/4
energy bumper
#     var1      var2      var3      var4      var5      var6      var7      var8      var9     var10
DEF       
#     Obj1      Obj2      Obj3      Obj4      Obj5      Obj6      Obj7      Obj8      Obj9     Obj10
         1
#---1----|----2----|----3----|----4----|----5----|----6----|----7----|----8----|----9----|---10----|
/END
#---1----|----2----|----3----|----4----|----5----|----6----|----7----|----8----|----9----|---10----|
