#RADIOSS STARTER
##========================================================================================
##
## Radioss Input Deck Generated by HyperMesh Version  : 2023.0.0.18-prathkRadiossSupport2_BW3-dev4
## Generated using HyperMesh-Radioss Template Version : APP_VERSION_STR
## Date: 06-23-2023   Time: 09:22:23
##
##========================================================================================
##
##--------------------------------------------------------------------------------------------------
#Runname                                                                        
/BEGIN
#Runname                                                                        
mat_law51.inc                                                                   
#   Invers      Irun
      2023         0
#    Input_mass_unit   Input_length_unit     Input_time_unit
                  kg                  mm                  ms
#     Work_mass_unit    Work_length_unit      Work_time_unit
                  kg                  mm                  ms
#---1----|----2----|----3----|----4----|----5----|----6----|----7----|----8----|----9----|---10----|
#   Invers      Irun
#    Input_mass_unit   Input_length_unit     Input_time_unit
#     Work_mass_unit    Work_length_unit      Work_time_unit
##HWCOLOR materials 1 3
/MAT/LAW51/1
non reflecting BC                                                                                   

#    Iform
         6
#               Pext                           Tcp            Tc_alpha
                 0.0                           0.0                 0.0
#            ALPHA_1              RHO_01                E_01              P_min1                P_01
                 0.0                 0.0                 0.0                 0.0                 0.0
#             SSP_01
                 0.0
#    BLANK CARD

#            ALPHA_1              RHO_01                E_01              P_min1                P_01
                 0.0                 0.0                 0.0                 0.0                 0.0
#             SSP_01
                 0.0
#    BLANK CARD

#            ALPHA_1              RHO_01                E_01              P_min1                P_01
                 0.0                 0.0                 0.0                 0.0                 0.0
#             SSP_01
                 0.0
#    BLANK CARD

#---1----|----2----|----3----|----4----|----5----|----6----|----7----|----8----|----9----|---10----|
##HWCOLOR materials 6 4
/MAT/LAW51/6
air LAW51                                                                                           

#    Iform
        12
#                                     NU              Nu_Vol
                                     0.0                 0.0
#    MatID           ALPHA_MAT
         9                 0.0
#    MatID           ALPHA_MAT
         8                 1.0
#---1----|----2----|----3----|----4----|----5----|----6----|----7----|----8----|----9----|---10----|
##HWCOLOR materials 7 5
/MAT/LAW51/7
99.99% Water-MULTIMAT:AIR+WATER                                                                     

#    Iform
        12
#                                     NU              Nu_Vol
                                     0.0                 0.0
#    MatID           ALPHA_MAT
         9              0.9999
#    MatID           ALPHA_MAT
         81.00000000000000E-04
#---1----|----2----|----3----|----4----|----5----|----6----|----7----|----8----|----9----|---10----|
##HWCOLOR materials 8 6
/MAT/HYD_VISC/8
AIR                                                                                                 
#              RHO_I               RHO_0
1.22000000000000E-09                 0.0
#                 Nu                Pmin
                 0.0                 0.0
/EOS/IDEAL-GAS/8
AIR                                                                                                 
#              Gamma                  P0                 PSH                  T0               RHO_0
                 1.41.00000000000000E-04                 0.0               300.0                 0.0
#---1----|----2----|----3----|----4----|----5----|----6----|----7----|----8----|----9----|---10----|
##HWCOLOR materials 9 7
/MAT/HYD_VISC/9
water                                                                                               
#              RHO_I               RHO_0
&Rho                                 0.0
#                 Nu                Pmin
                 0.0                 0.0
/EOS/STIFF-GAS/9
water                                                                                               
#              Gamma                  P0                 PSH              P_star               RHO_0
                 6.11.00000000000000E-04                 0.0             0.36885                 0.0
#enddata
/END
