#RADIOSS STARTER
/BEGIN
MODALMAST
      2022         0
                  Mg                  mm                   s
                  Mg                  mm                   s
/NODE
#   node_ID                   X                   Y                   Z
         1                 0.0                 0.0                 0.0
         2                 0.0                 0.0               100.0
         3                 0.0                 0.0               200.0
         4                 0.0                 0.0               300.0
         5                 0.0                 0.0               400.0
         6                 0.0                 0.0               500.0
         7                 0.0                 0.0               600.0
         8                 0.0                 0.0               700.0
         9                 0.0                 0.0               800.0
        10                 0.0                 0.0               900.0
        11                 0.0                 0.0              1000.0
        12                 0.0                 0.0              1100.0
        13                 0.0                 0.0              1200.0
        14                 0.0                 0.0              1300.0
        15                 0.0                 0.0              1400.0
        16                 0.0                 0.0              1500.0
        17                 0.0                 0.0              1600.0
        18                 0.0                 0.0              1700.0
        19                 0.0                 0.0              1800.0
        20                 0.0                 0.0              1900.0
        21                 0.0                 0.0              2000.0
        99                 0.0              1000.0                 0.0
/BEAM/1
         1         1         2        99
         2         2         3        99
         3         3         4        99
         4         4         5        99
         5         5         6        99
         6         6         7        99
         7         7         8        99
         8         8         9        99
         9         9        10        99
        10        10        11        99
        11        11        12        99
        12        12        13        99
        13        13        14        99
        14        14        15        99
        15        15        16        99
        16        16        17        99
        17        17        18        99
        18        18        19        99
        19        19        20        99
        20        20        21        99
/PART/1
mast tube
         1         1
/MAT/LAW1/1
steel elastic
             7.8e-06
               210.0                 0.3
/PROP/BEAM/1
tube D60.3x4
          
          
               707.5            281800.0            281800.0            563600.0
          
/GRNOD/NODE/1
base
         1
/BCS/1
clamp base (translations + rotations)
   111 111         0         1
/END
