#RADIOSS STARTER
/BEGIN
MODALMAST - natural frequencies of a cantilever mast (pyradioss /IMPL/EIGV modal example)
/NODE
         1        0.0000000000        0.0000000000        0.0000000000
         2        0.0000000000        0.0000000000      100.0000000000
         3        0.0000000000        0.0000000000      200.0000000000
         4        0.0000000000        0.0000000000      300.0000000000
         5        0.0000000000        0.0000000000      400.0000000000
         6        0.0000000000        0.0000000000      500.0000000000
         7        0.0000000000        0.0000000000      600.0000000000
         8        0.0000000000        0.0000000000      700.0000000000
         9        0.0000000000        0.0000000000      800.0000000000
        10        0.0000000000        0.0000000000      900.0000000000
        11        0.0000000000        0.0000000000     1000.0000000000
        12        0.0000000000        0.0000000000     1100.0000000000
        13        0.0000000000        0.0000000000     1200.0000000000
        14        0.0000000000        0.0000000000     1300.0000000000
        15        0.0000000000        0.0000000000     1400.0000000000
        16        0.0000000000        0.0000000000     1500.0000000000
        17        0.0000000000        0.0000000000     1600.0000000000
        18        0.0000000000        0.0000000000     1700.0000000000
        19        0.0000000000        0.0000000000     1800.0000000000
        20        0.0000000000        0.0000000000     1900.0000000000
        21        0.0000000000        0.0000000000     2000.0000000000
        99        0.0000000000     1000.0000000000        0.0000000000
/BEAM/1
         1         1         2        99
         2         2         3        99
         3         3         4        99
         4         4         5        99
         5         5         6        99
         6         6         7        99
         7         7         8        99
         8         8         9        99
         9         9        10        99
        10        10        11        99
        11        11        12        99
        12        12        13        99
        13        13        14        99
        14        14        15        99
        15        15        16        99
        16        16        17        99
        17        17        18        99
        18        18        19        99
        19        19        20        99
        20        20        21        99
/PART/1
mast tube
         1         1
/MAT/LAW1/1
steel elastic
   7.8e-6
     210.0       0.3
/PROP/BEAM/1
tube D60.3x4
     707.5 2.818e+05 2.818e+05 5.636e+05
/GRNOD/NODE/1
base
1
/BCS/1
clamp base (translations + rotations)
       111       111         0         1
/END
