#RADIOSS STARTER
#--------------------------------------------------------------------------------------------------|
#---1----|----2----|----3----|----4----|----5----|----6----|----7----|----8----|----9----|---10----|
/BEGIN
driver_airbag
      2020         0
                  Mg                  mm                   s
                  Mg                  mm                   s
#---1----|----2----|----3----|----4----|----5----|----6----|----7----|----8----|----9----|---10----|
#-  1. CONTROL CARDS:
#---1----|----2----|----3----|----4----|----5----|----6----|----7----|----8----|----9----|---10----|
/TITLE
driver_airbag uniform pressure
#---1----|----2----|----3----|----4----|----5----|----6----|----7----|----8----|----9----|---10----|
#-  2. DAMPING:
#---1----|----2----|----3----|----4----|----5----|----6----|----7----|----8----|----9----|---10----|
/DAMP/1
airbag damping                                                                                      
#              alpha                beta  grnod_ID   skew_ID              Tstart               Tstop
                 150                   0         6         0                   0                   0
/GRNOD/PART/6
DAMP_group_38_of_PART
         1         2         3         4         5         6         7         8         9        10
        11        12        13        14        15        16        17        18        19        20
        21        22        23        24        25        26        27        28        29        30
       100
#---1----|----2----|----3----|----4----|----5----|----6----|----7----|----8----|----9----|---10----|
#-  3. MATERIALS:
#---1----|----2----|----3----|----4----|----5----|----6----|----7----|----8----|----9----|---10----|
/MAT/FABRI/2
FABRIC
#              RHO_I               RHO_O
             8.5E-10                   0
#                E11                 E22                NU12
                 500                 500                   0
#                G12                 G23                 G31
                  10                  10                  10
#                R_E                              ZEROSTRESS          FSCALE_POR   SENS_ID
                .001                                       1                   0         1
#---1----|----2----|----3----|----4----|----5----|----6----|----7----|----8----|----9----|---10----|
/MAT/GAS/MASS/1001
AIR
#                 MW
             2.89E-5
#                Cpa                 Cpb                 Cpc                 Cpd                 Cpe
         928474283.7                   0                   0                   0                   0
#                Cpf
                   0
#---1----|----2----|----3----|----4----|----5----|----6----|----7----|----8----|----9----|---10----|
/MAT/GAS/MASS/1002
Injected
#                 MW
              2.8E-5
#                Cpa                 Cpb                 Cpc                 Cpd                 Cpe
          1215999137                   0                   0                   0                   0
#                Cpf
                   0
#---1----|----2----|----3----|----4----|----5----|----6----|----7----|----8----|----9----|---10----|
/MAT/VOID/100001
void
#                RHO                   E                  NU
                1E-9                 500                   0
#---1----|----2----|----3----|----4----|----5----|----6----|----7----|----8----|----9----|---10----|
/MAT/ELAST/100002
Dummy
#        Init. dens.          Ref. dens.
        7.8000003E-9                   0
#                  E                  nu
           2069.9999                 .28
#---1----|----2----|----3----|----4----|----5----|----6----|----7----|----8----|----9----|---10----|
#-  4. NODES:
#---1----|----2----|----3----|----4----|----5----|----6----|----7----|----8----|----9----|---10----|
/NODE
      9003    -50.432625163682      -.069999975579    146.683085287335
      9004    -28.024343540731      -.069999985544    149.946462173295
      9005    -26.794552399305      -.069999952074    153.498144751719
      9006    -25.002704922243      -.069999965479    156.895817949169
      9007    -17.708645777433      -.070000007232     153.49423315272
      9008    -7.8647313705601      -.070000038534    161.146920431348
      9009    -1.6255525083775      -.069999988765    162.932227808933
      9010    8.57588156778093      -.070000044991      154.2989132348
      9011    14.2577916972919      -.069999949632    157.185625271219
      9012    -69.511318720126      -.070000039728    141.943028958056
      9013    87.6747620560241      -.070000030775    314.558208586595
      9014    78.5560867293871      -.069999967576    337.708259665214
      9015    50.7945456938814    67.6500019887634    277.367555826997
      9016     27.144436553767     72.699997016861    270.226950476736
      9017    2.95891199436733     72.900001968384    262.844502381117
      9018    34.7858468353354    65.9800029668449    245.782287244819
      9019    10.3509672177979    68.0500029600916    238.661614968843
      9020     65.219981768699     46.889999053514    229.586190498376
      9021    41.9888273592617    55.9399989723266     222.50137908742
      9022    17.5365319891625    60.8600010084758    215.032982907738
# ... 987 like lines cut
#---1----|----2----|----3----|----4----|----5----|----6----|----7----|----8----|----9----|---10----|
#-  5. BOUNDARY CONDITIONS:
#---1----|----2----|----3----|----4----|----5----|----6----|----7----|----8----|----9----|---10----|
/BCS/1
Fix Inflator
#  Tra rot   skew_ID  grnod_ID
   111 111         0         5
/GRNOD/NODE/5
BCS_group_40_of_NODE
     28009     28010     28011     28012     28013     28014     28019     28020     28021     28051
     28052     28053     28054     28055     28060     28061     28062     28087     28088     28092
     28093     28117     28118     28122     28123
#---1----|----2----|----3----|----4----|----5----|----6----|----7----|----8----|----9----|---10----|
/BCS/2
New BCS 2
#  Tra rot   skew_ID  grnod_ID
   110 111         0       511
/GRNOD/NODE/511
BCS_group_40_of_NODE
     34038
#---1----|----2----|----3----|----4----|----5----|----6----|----7----|----8----|----9----|---10----|
#-  6. PARTS:
#---1----|----2----|----3----|----4----|----5----|----6----|----7----|----8----|----9----|---10----|
/PART/1
AIRBAG_mat5117
         2         2         6
#---1----|----2----|----3----|----4----|----5----|----6----|----7----|----8----|----9----|---10----|
# SH3N elements of /PART/1/AIRBAG_mat5117:
#---1----|----2----|----3----|----4----|----5----|----6----|----7----|----8----|----9----|---10----|
/SH3N/1
    190013     24187     25036     25038
    190014     24187     25038     25041
    190953     24185     24186     24187
    190954     24185     24187     24188
    190955     24186     24185     24190
    190956     24185     24189     24190
    190957     24190     24189     24191
    190958     24190     24191     24192
    190959     24189     24185     24188
    190960     24189     24188     24193
    190961     24189     24193     24191
    190962     24193     24194     24191
    190963     25036     24187     24186
    190964     25036     24186     25037
    190965     24186     24190     25037
    190966     24190     25040     25037
    190967     25040     24190     24192
    190968     25040     24192     25039
    190969     24187     25041     24188
    190970     25041     25042     24188
# ... 4 like lines cut
#---1----|----2----|----3----|----4----|----5----|----6----|----7----|----8----|----9----|---10----|
/PART/2
AIRBAG_mat5118
         2         2         3
#---1----|----2----|----3----|----4----|----5----|----6----|----7----|----8----|----9----|---10----|
# SH3N elements of /PART/2/AIRBAG_mat5118:
#---1----|----2----|----3----|----4----|----5----|----6----|----7----|----8----|----9----|---10----|
/SH3N/2
    190015     26001     26002     26003
    190016     26001     26003     26004
    190017     26002     26001     26011
    190018     26002     26011     26009
    190019     26009     26011     26015
    190020     26009     26015     26013
    190021     26013     26015     26019
    190022     26013     26019     26017
    190023     26017     26019     26023
    190024     26017     26023     26021
    190025     26070     26080     26081
    190026     26070     26081     26071
    190027     26071     26081     26082
    190028     26071     26082     26074
    190029     26074     26082     26083
    190030     26074     26083     26076
    190031     26076     26083     26084
    190032     26076     26084     26078
    190033     26078     26084     26004
    190034     26078     26004     26003
# ... 76 like lines cut
#---1----|----2----|----3----|----4----|----5----|----6----|----7----|----8----|----9----|---10----|
/PART/3
AIRBAG_mat5119
         2         2         3
#---1----|----2----|----3----|----4----|----5----|----6----|----7----|----8----|----9----|---10----|
# SH3N elements of /PART/3/AIRBAG_mat5119:
#---1----|----2----|----3----|----4----|----5----|----6----|----7----|----8----|----9----|---10----|
/SH3N/3
    190039     30006     29006     25004
    190040     30006     25004     25001
    190041     29013     30017     25041
    190042     29013     25041     25038
    190043     34001     34002     34003
    190044     34001     34003     34004
    190045     34004     34003     30002
    190046     34004     30002     30001
    190047     30001     30003     34005
    190048     30001     34005     34004
    190049     34004     34005     34006
    190050     34004     34006     34001
    190051     30003     30004     34007
    190052     30003     34007     34005
    190053     34005     34007     34008
    190054     34005     34008     34006
    190055     30004     30005     34009
    190056     30004     34009     34007
    190057     34007     34009     34010
    190058     34007     34010     34008
# ... 76 like lines cut
#---1----|----2----|----3----|----4----|----5----|----6----|----7----|----8----|----9----|---10----|
/PART/4
AIRBAG_mat5120
         2         2         8
#---1----|----2----|----3----|----4----|----5----|----6----|----7----|----8----|----9----|---10----|
# SH3N elements of /PART/4/AIRBAG_mat5120:
#---1----|----2----|----3----|----4----|----5----|----6----|----7----|----8----|----9----|---10----|
/SH3N/4
    190075     26027     27004     27005
    190076     26027     27005     27001
    191107     26025     26026     26027
    191108     26025     26027     26028
    191109     26028     26029     26030
    191110     26028     26030     26025
    191111     26029     24044     24043
    191112     26029     24043     26030
    191113     26030     26031     26025
    191114     26031     26026     26025
    191115     26030     24043     26031
    191116     24043     24058     26031
    191117     27001     27002     26028
    191118     27001     26028     26027
    191119     26028     27002     26029
    191120     27002     27003     26029
    191121     27003     25006     24044
    191122     27003     24044     26029
    191123     26027     26026     27004
    191124     26026     27018     27004
# ... 4 like lines cut
#---1----|----2----|----3----|----4----|----5----|----6----|----7----|----8----|----9----|---10----|
/PART/5
AIRBAG_mat5121
         2         2         8
#---1----|----2----|----3----|----4----|----5----|----6----|----7----|----8----|----9----|---10----|
# SH3N elements of /PART/5/AIRBAG_mat5121:
#---1----|----2----|----3----|----4----|----5----|----6----|----7----|----8----|----9----|---10----|
/SH3N/5
    190077     24039     25001     25004
    190078     24039     25004     25005
    191129     24037     24038     24039
    191130     24037     24039     24040
    191131     24038     24037     24042
    191132     24037     24041     24042
    191133     24042     24041     24043
    191134     24042     24043     24044
    191135     24041     24037     24040
    191136     24041     24040     24049
    191137     24041     24049     24043
    191138     24049     24058     24043
    191139     25001     24039     24038
    191140     25001     24038     25002
    191141     24038     24042     25002
    191142     24042     25003     25002
    191143     25003     24042     24044
    191144     25003     24044     25006
    191145     24039     25005     24040
    191146     25005     25013     24040
# ... 4 like lines cut
#---1----|----2----|----3----|----4----|----5----|----6----|----7----|----8----|----9----|---10----|
/PART/6
AIRBAG_mat5122
         2         2         2
#---1----|----2----|----3----|----4----|----5----|----6----|----7----|----8----|----9----|---10----|
# SH3N elements of /PART/6/AIRBAG_mat5122:
#---1----|----2----|----3----|----4----|----5----|----6----|----7----|----8----|----9----|---10----|
/SH3N/6
    190079     27029     27031     27032
    190080     27029     27032     27030
    190081     27033     27032     27031
    190082     27033     27031     27034
    190083     27034     27035     27036
    190084     27034     27036     27033
    190085     27036     27035     27037
    190086     27036     27037     27038
    190087     27043     27038     27044
    190088     27038     27037     27044
    190089     27044     27045     27043
    190090     27045     27046     27043
    190091     27045     27047     27046
    190092     27047     27048     27046
    190093     27047     27049     27048
    190094     27049     27050     27048
    190095     27029     33011     33012
    190096     27029     33012     27031
    190097     27031     33012     33013
    190098     27031     33013     27034
# ... 76 like lines cut
#---1----|----2----|----3----|----4----|----5----|----6----|----7----|----8----|----9----|---10----|
/PART/7
AIRBAG_mat5123
         2         2         2
#---1----|----2----|----3----|----4----|----5----|----6----|----7----|----8----|----9----|---10----|
# SH3N elements of /PART/7/AIRBAG_mat5123:
#---1----|----2----|----3----|----4----|----5----|----6----|----7----|----8----|----9----|---10----|
/SH3N/7
    190127     24114     24115     24116
    190128     24114     24116     24117
    190129     24115     24119     24120
    190130     24115     24120     24116
    190131     24119     24121     24122
    190132     24119     24122     24120
    190133     24121     24123     24124
    190134     24121     24124     24122
    190135     24123     24125     24126
    190136     24123     24126     24124
    190137     24117     24116     24128
    190138     24117     24128     24129
    190139     24116     24120     24130
    190140     24116     24130     24128
    190141     24120     24122     24131
    190142     24120     24131     24130
    190143     24122     24124     24132
    190144     24122     24132     24131
    190145     24124     24126     24133
    190146     24124     24133     24132
# ... 76 like lines cut
#---1----|----2----|----3----|----4----|----5----|----6----|----7----|----8----|----9----|---10----|
/PART/8
AIRBAG_mat5124
         2         2         1
#---1----|----2----|----3----|----4----|----5----|----6----|----7----|----8----|----9----|---10----|
# SH3N elements of /PART/8/AIRBAG_mat5124:
#---1----|----2----|----3----|----4----|----5----|----6----|----7----|----8----|----9----|---10----|
/SH3N/8
    190191     28002     28005     28006
    190192     28002     28006     28003
    190193     28005     28007     28008
    190194     28005     28008     28006
    190195     28007     28009     28010
    190196     28007     28010     28008
    190197     28009     28011     28012
    190198     28009     28012     28010
    190199     28013     28014     28012
    190200     28013     28012     28011
    190201     28016     28017     28005
    190202     28016     28005     28002
    190203     28005     28017     28018
    190204     28005     28018     28007
    190205     28007     28018     28019
    190206     28007     28019     28009
    190207     28009     28019     28020
    190208     28009     28020     28011
    190209     28011     28020     28021
    190210     28011     28021     28013
# ... 268 like lines cut
#---1----|----2----|----3----|----4----|----5----|----6----|----7----|----8----|----9----|---10----|
/PART/9
AIRBAG_mat5125
         2         2         1
#---1----|----2----|----3----|----4----|----5----|----6----|----7----|----8----|----9----|---10----|
# SH3N elements of /PART/9/AIRBAG_mat5125:
#---1----|----2----|----3----|----4----|----5----|----6----|----7----|----8----|----9----|---10----|
/SH3N/9
    190423     24001     24002     24003
    190424     24001     24003     24004
    190425     24004     24003     24005
    190426     24004     24005     24006
    190427     24006     24005     24007
    190428     24006     24007     24008
    190429     24008     24007     24009
    190430     24008     24009     24010
    190431     24011     24010     24009
    190432     24011     24009     24012
    190433     24013     24001     24004
    190434     24013     24004     24014
    190435     24004     24006     24015
    190436     24004     24015     24014
    190437     24006     24008     24016
    190438     24006     24016     24015
    190439     24008     24010     24017
    190440     24008     24017     24016
    190441     24010     24011     24018
    190442     24010     24018     24017
# ... 268 like lines cut
#---1----|----2----|----3----|----4----|----5----|----6----|----7----|----8----|----9----|---10----|
/PART/10
AIRBAG_mat5126
         2         2         5
#---1----|----2----|----3----|----4----|----5----|----6----|----7----|----8----|----9----|---10----|
# SH3N elements of /PART/10/AIRBAG_mat5126:
#---1----|----2----|----3----|----4----|----5----|----6----|----7----|----8----|----9----|---10----|
/SH3N/10
    190707     27008     27010     27011
    190708     27008     27011     27009
    190709     27012     27011     27010
    190710     27012     27010     27013
    190711     27013     27014     27015
    190712     27013     27015     27012
    190713     27015     27014     27016
    190714     27015     27016     27017
    190715     27062     27017     27063
    190716     27017     27016     27063
    190717     27063     27064     27062
    190718     27064     27065     27062
    190719     27064     27066     27065
    190720     27066     27067     27065
    190721     27066     27068     27067
    190722     27068     27069     27067
    190723     27008     33001     33002
    190724     27008     33002     27010
    190725     27010     33002     33003
    190726     27010     33003     27013
# ... 76 like lines cut
#---1----|----2----|----3----|----4----|----5----|----6----|----7----|----8----|----9----|---10----|
/PART/11
AIRBAG_mat5126
         2         2         5
#---1----|----2----|----3----|----4----|----5----|----6----|----7----|----8----|----9----|---10----|
# SH3N elements of /PART/11/AIRBAG_mat5126:
#---1----|----2----|----3----|----4----|----5----|----6----|----7----|----8----|----9----|---10----|
/SH3N/11
    190755     24045     24046     24047
    190756     24045     24047     24048
    190757     24046     24050     24051
    190758     24046     24051     24047
    190759     24050     24052     24053
    190760     24050     24053     24051
    190761     24052     24054     24055
    190762     24052     24055     24053
    190763     24054     24056     24057
    190764     24054     24057     24055
    190765     24048     24047     24059
    190766     24048     24059     24060
    190767     24047     24051     24061
    190768     24047     24061     24059
    190769     24051     24053     24062
    190770     24051     24062     24061
    190771     24053     24055     24063
    190772     24053     24063     24062
    190773     24055     24057     24064
    190774     24055     24064     24063
# ... 76 like lines cut
#---1----|----2----|----3----|----4----|----5----|----6----|----7----|----8----|----9----|---10----|
/PART/12
AIRBAG_mat5122
         2         2         7
#---1----|----2----|----3----|----4----|----5----|----6----|----7----|----8----|----9----|---10----|
# SH3N elements of /PART/12/AIRBAG_mat5122:
#---1----|----2----|----3----|----4----|----5----|----6----|----7----|----8----|----9----|---10----|
/SH3N/12
    190819     26058     27025     27026
    190820     26058     27026     27022
    191371     26056     26057     26058
    191372     26056     26058     26059
    191373     26059     26060     26061
    191374     26059     26061     26056
    191375     26060     24113     24112
    191376     26060     24112     26061
    191377     26061     26062     26056
    191378     26062     26057     26056
    191379     26061     24112     26062
    191380     24112     24127     26062
    191381     27022     27023     26059
    191382     27022     26059     26058
    191383     26059     27023     26060
    191384     27023     27024     26060
    191385     27024     25021     24113
    191386     27024     24113     26060
    191387     26058     26057     27025
    191388     26057     27039     27025
# ... 4 like lines cut
#---1----|----2----|----3----|----4----|----5----|----6----|----7----|----8----|----9----|---10----|
/PART/13
AIRBAG_mat5123
         2         2         7
#---1----|----2----|----3----|----4----|----5----|----6----|----7----|----8----|----9----|---10----|
# SH3N elements of /PART/13/AIRBAG_mat5123:
#---1----|----2----|----3----|----4----|----5----|----6----|----7----|----8----|----9----|---10----|
/SH3N/13
    190821     24108     25016     25019
    190822     24108     25019     25020
    191393     24106     24107     24108
    191394     24106     24108     24109
    191395     24107     24106     24111
    191396     24106     24110     24111
    191397     24111     24110     24112
    191398     24111     24112     24113
    191399     24110     24106     24109
    191400     24110     24109     24118
    191401     24110     24118     24112
    191402     24118     24127     24112
    191403     25016     24108     24107
    191404     25016     24107     25017
    191405     24107     24111     25017
    191406     24111     25018     25017
    191407     25018     24111     24113
    191408     25018     24113     25021
    191409     24108     25020     24109
    191410     25020     25028     24109
# ... 4 like lines cut
#---1----|----2----|----3----|----4----|----5----|----6----|----7----|----8----|----9----|---10----|
/PART/14
AIRBAG_mat5124
         2         2         4
#---1----|----2----|----3----|----4----|----5----|----6----|----7----|----8----|----9----|---10----|
# SH3N elements of /PART/14/AIRBAG_mat5124:
#---1----|----2----|----3----|----4----|----5----|----6----|----7----|----8----|----9----|---10----|
/SH3N/14
    190823     26032     26033     26034
    190824     26032     26034     26035
    190825     26033     26032     26042
    190826     26033     26042     26040
    190827     26040     26042     26046
    190828     26040     26046     26044
    190829     26044     26046     26050
    190830     26044     26050     26048
    190831     26048     26050     26054
    190832     26048     26054     26052
    190833     26097     26107     26108
    190834     26097     26108     26098
    190835     26098     26108     26109
    190836     26098     26109     26101
    190837     26101     26109     26110
    190838     26101     26110     26103
    190839     26103     26110     26111
    190840     26103     26111     26105
    190841     26105     26111     26035
    190842     26105     26035     26034
# ... 76 like lines cut
#---1----|----2----|----3----|----4----|----5----|----6----|----7----|----8----|----9----|---10----|
/PART/15
AIRBAG_mat5125
         2         2         4
#---1----|----2----|----3----|----4----|----5----|----6----|----7----|----8----|----9----|---10----|
# SH3N elements of /PART/15/AIRBAG_mat5125:
#---1----|----2----|----3----|----4----|----5----|----6----|----7----|----8----|----9----|---10----|
/SH3N/15
    190847     30014     29012     25019
    190848     30014     25019     25016
    190849     29018     30024     25055
    190850     29018     25055     25052
    190851     34011     34012     34013
    190852     34011     34013     34014
    190853     34014     34013     30010
    190854     34014     30010     30009
    190855     30009     30011     34015
    190856     30009     34015     34014
    190857     34014     34015     34016
    190858     34014     34016     34011
    190859     30011     30012     34017
    190860     30011     34017     34015
    190861     34015     34017     34018
    190862     34015     34018     34016
    190863     30012     30013     34019
    190864     30012     34019     34017
    190865     34017     34019     34020
    190866     34017     34020     34018
# ... 76 like lines cut
#---1----|----2----|----3----|----4----|----5----|----6----|----7----|----8----|----9----|---10----|
/PART/16
AIRBAG_mat5126
         2         2         9
#---1----|----2----|----3----|----4----|----5----|----6----|----7----|----8----|----9----|---10----|
# SH3N elements of /PART/16/AIRBAG_mat5126:
#---1----|----2----|----3----|----4----|----5----|----6----|----7----|----8----|----9----|---10----|
/SH3N/16
    190883     26092     27078     27075
    190884     26092     27075     27074
    191547     26090     26091     26092
    191548     26090     26092     26093
    191549     26093     26094     26095
    191550     26093     26095     26090
    191551     26094     24247     24246
    191552     26094     24246     26095
    191553     26095     26100     26090
    191554     26100     26091     26090
    191555     26095     24246     26100
    191556     24246     24249     26100
    191557     27074     27073     26093
    191558     27074     26093     26092
    191559     26093     27073     26094
    191560     27073     27076     26094
    191561     27076     25053     24247
    191562     27076     24247     26094
    191563     26092     26091     27078
    191564     26091     27079     27078
# ... 4 like lines cut
#---1----|----2----|----3----|----4----|----5----|----6----|----7----|----8----|----9----|---10----|
/PART/17
AIRBAG_mat5126
         2         2         9
#---1----|----2----|----3----|----4----|----5----|----6----|----7----|----8----|----9----|---10----|
# SH3N elements of /PART/17/AIRBAG_mat5126:
#---1----|----2----|----3----|----4----|----5----|----6----|----7----|----8----|----9----|---10----|
/SH3N/17
    190885     24242     25050     25052
    190886     24242     25052     25055
    191569     24240     24241     24242
    191570     24240     24242     24243
    191571     24241     24240     24245
    191572     24240     24244     24245
    191573     24245     24244     24246
    191574     24245     24246     24247
    191575     24244     24240     24243
    191576     24244     24243     24248
    191577     24244     24248     24246
    191578     24248     24249     24246
    191579     25050     24242     24241
    191580     25050     24241     25051
    191581     24241     24245     25051
    191582     24245     25054     25051
    191583     25054     24245     24247
    191584     25054     24247     25053
    191585     24242     25055     24243
    191586     25055     25056     24243
# ... 4 like lines cut
#---1----|----2----|----3----|----4----|----5----|----6----|----7----|----8----|----9----|---10----|
/PART/18
AIRBAG
         2         2         6
#---1----|----2----|----3----|----4----|----5----|----6----|----7----|----8----|----9----|---10----|
# SH3N elements of /PART/18/AIRBAG:
#---1----|----2----|----3----|----4----|----5----|----6----|----7----|----8----|----9----|---10----|
/SH3N/18
    190887     26065     27059     27056
    190888     26065     27056     27055
    191591     26063     26064     26065
    191592     26063     26065     26066
    191593     26066     26067     26068
    191594     26066     26068     26063
    191595     26067     24192     24191
    191596     26067     24191     26068
    191597     26068     26073     26063
    191598     26073     26064     26063
    191599     26068     24191     26073
    191600     24191     24194     26073
    191601     27055     27054     26066
    191602     27055     26066     26065
    191603     26066     27054     26067
    191604     27054     27057     26067
    191605     27057     25039     24192
    191606     27057     24192     26067
    191607     26065     26064     27059
    191608     26064     27060     27059
# ... 4 like lines cut
#---1----|----2----|----3----|----4----|----5----|----6----|----7----|----8----|----9----|---10----|
/PART/19
fictitious 1
    100001    100001        10
#---1----|----2----|----3----|----4----|----5----|----6----|----7----|----8----|----9----|---10----|
# SH3N elements of /PART/19/fictitious 1:
#---1----|----2----|----3----|----4----|----5----|----6----|----7----|----8----|----9----|---10----|
/SH3N/19
    100001     25039     25040     27057
    190889     25036     25038     27056
    190890     25036     27056     27055
    191613     25040     25037     27057
    191614     25037     27054     27057
    191615     25037     25036     27054
    191616     25036     27055     27054
#---1----|----2----|----3----|----4----|----5----|----6----|----7----|----8----|----9----|---10----|
/PART/20
fictitious 2
    100001    100001        10
#---1----|----2----|----3----|----4----|----5----|----6----|----7----|----8----|----9----|---10----|
# SH3N elements of /PART/20/fictitious 2:
#---1----|----2----|----3----|----4----|----5----|----6----|----7----|----8----|----9----|---10----|
/SH3N/20
    120001     25030     25029     27041
    190891     25020     25019     27026
    190892     25020     27026     27025
    191617     25029     25028     27041
    191618     25028     27039     27041
    191619     25028     25020     27039
    191620     25020     27025     27039
#---1----|----2----|----3----|----4----|----5----|----6----|----7----|----8----|----9----|---10----|
/PART/21
fictitious 3
    100001    100001        10
#---1----|----2----|----3----|----4----|----5----|----6----|----7----|----8----|----9----|---10----|
# SH3N elements of /PART/21/fictitious 3:
#---1----|----2----|----3----|----4----|----5----|----6----|----7----|----8----|----9----|---10----|
/SH3N/21
    130001     25044     25043     27061
    190893     25041     25038     27059
    190894     25038     27056     27059
    191621     25043     25042     27061
    191622     25042     27060     27061
    191623     25042     25041     27060
    191624     25041     27059     27060
#---1----|----2----|----3----|----4----|----5----|----6----|----7----|----8----|----9----|---10----|
/PART/22
fictitious 4
    100001    100001        10
#---1----|----2----|----3----|----4----|----5----|----6----|----7----|----8----|----9----|---10----|
# SH3N elements of /PART/22/fictitious 4:
#---1----|----2----|----3----|----4----|----5----|----6----|----7----|----8----|----9----|---10----|
/SH3N/22
    140001     25021     25018     27024
    190895     25016     25019     27022
    190896     25019     27026     27022
    191625     25018     25017     27024
    191626     25017     27023     27024
    191627     25017     25016     27023
    191628     25016     27022     27023
#---1----|----2----|----3----|----4----|----5----|----6----|----7----|----8----|----9----|---10----|
/PART/23
fictitious 5
    100001    100001        10
#---1----|----2----|----3----|----4----|----5----|----6----|----7----|----8----|----9----|---10----|
# SH3N elements of /PART/23/fictitious 5:
#---1----|----2----|----3----|----4----|----5----|----6----|----7----|----8----|----9----|---10----|
/SH3N/23
    150001     25006     25003     27003
    190897     25001     25004     27001
    190898     25004     27005     27001
    191629     25003     25002     27003
    191630     25002     27002     27003
    191631     25002     25001     27002
    191632     25001     27001     27002
#---1----|----2----|----3----|----4----|----5----|----6----|----7----|----8----|----9----|---10----|
/PART/24
fictitious 6
    100001    100001        10
#---1----|----2----|----3----|----4----|----5----|----6----|----7----|----8----|----9----|---10----|
# SH3N elements of /PART/24/fictitious 6:
#---1----|----2----|----3----|----4----|----5----|----6----|----7----|----8----|----9----|---10----|
/SH3N/24
    160001     25058     25057     27080
    190899     25055     25052     27078
    190900     25052     27075     27078
    191633     25057     25056     27080
    191634     25056     27079     27080
    191635     25056     25055     27079
    191636     25055     27078     27079
#---1----|----2----|----3----|----4----|----5----|----6----|----7----|----8----|----9----|---10----|
/PART/25
fictitious 7
    100001    100001        10
#---1----|----2----|----3----|----4----|----5----|----6----|----7----|----8----|----9----|---10----|
# SH3N elements of /PART/25/fictitious 7:
#---1----|----2----|----3----|----4----|----5----|----6----|----7----|----8----|----9----|---10----|
/SH3N/25
    170001     25015     25014     27020
    190901     25005     25004     27005
    190902     25005     27005     27004
    191637     25014     25013     27020
    191638     25013     27018     27020
    191639     25013     25005     27018
    191640     25005     27004     27018
#---1----|----2----|----3----|----4----|----5----|----6----|----7----|----8----|----9----|---10----|
/PART/26
fictitious 8
    100001    100001        10
#---1----|----2----|----3----|----4----|----5----|----6----|----7----|----8----|----9----|---10----|
# SH3N elements of /PART/26/fictitious 8:
#---1----|----2----|----3----|----4----|----5----|----6----|----7----|----8----|----9----|---10----|
/SH3N/26
    180001     25053     25054     27076
    190903     25050     25052     27075
    190904     25050     27075     27074
    191641     25054     25051     27076
    191642     25051     27073     27076
    191643     25051     25050     27073
    191644     25050     27074     27073
#---1----|----2----|----3----|----4----|----5----|----6----|----7----|----8----|----9----|---10----|
/PART/27
fictitious 9
    100001    100001        10
#---1----|----2----|----3----|----4----|----5----|----6----|----7----|----8----|----9----|---10----|
# SH3N elements of /PART/27/fictitious 9:
#---1----|----2----|----3----|----4----|----5----|----6----|----7----|----8----|----9----|---10----|
/SH3N/27
    190905     25035     25034     27052
    190906     25034     27050     27052
    190907     25034     25033     27050
    190908     25033     27048     27050
    190909     25033     25032     27048
    190910     25032     27046     27048
    190911     25032     25031     27046
    190912     25031     27043     27046
    190913     25031     25027     27043
    190914     25027     27038     27043
    190915     25027     25026     27038
    190916     25026     27036     27038
    190917     25026     25025     27036
    190918     25025     27033     27036
    190919     25025     25024     27033
    190920     25024     27032     27033
    190921     25024     25023     27032
    190922     25023     27030     27032
    190923     25023     25022     27027
    190924     25023     27027     27030
# ... 4 like lines cut
#---1----|----2----|----3----|----4----|----5----|----6----|----7----|----8----|----9----|---10----|
/PART/28
fictitious 10
    100001    100001        10
#---1----|----2----|----3----|----4----|----5----|----6----|----7----|----8----|----9----|---10----|
# SH3N elements of /PART/28/fictitious 10:
#---1----|----2----|----3----|----4----|----5----|----6----|----7----|----8----|----9----|---10----|
/SH3N/28
    190925     25004     29006     28036
    190926     25004     28036     27005
    190927     29013     25038     27056
    190928     29013     27056     28109
    191649     29006     29005     28036
    191650     29005     28029     28036
    191651     29005     29004     28029
    191652     29004     28022     28029
    191653     29004     29003     28022
    191654     29003     28015     28022
    191655     29003     29001     28015
    191656     29001     28001     28015
    191657     29001     29002     28001
    191658     29002     28004     28001
    191659     29002     29017     28004
    191660     29017     28113     28004
    191661     29017     29016     28113
    191662     29016     28112     28113
    191663     29016     29015     28112
    191664     29015     28111     28112
# ... 4 like lines cut
#---1----|----2----|----3----|----4----|----5----|----6----|----7----|----8----|----9----|---10----|
/PART/29
fictitious 11
    100001    100001        10
#---1----|----2----|----3----|----4----|----5----|----6----|----7----|----8----|----9----|---10----|
# SH3N elements of /PART/29/fictitious 11:
#---1----|----2----|----3----|----4----|----5----|----6----|----7----|----8----|----9----|---10----|
/SH3N/29
    190929     25019     29012     28077
    190930     25019     28077     27026
    190931     29018     25052     27075
    190932     29018     27075     28139
    191669     29012     29011     28077
    191670     29011     28070     28077
    191671     29011     29010     28070
    191672     29010     28063     28070
    191673     29010     29009     28063
    191674     29009     28056     28063
    191675     29009     29007     28056
    191676     29007     28043     28056
    191677     29007     29008     28043
    191678     29008     28046     28043
    191679     29008     29022     28046
    191680     29022     28143     28046
    191681     29022     29021     28143
    191682     29021     28142     28143
    191683     29021     29020     28142
    191684     29020     28141     28142
# ... 4 like lines cut
#---1----|----2----|----3----|----4----|----5----|----6----|----7----|----8----|----9----|---10----|
/PART/30
fictitious 12
    100001    100001        10
#---1----|----2----|----3----|----4----|----5----|----6----|----7----|----8----|----9----|---10----|
# SH3N elements of /PART/30/fictitious 12:
#---1----|----2----|----3----|----4----|----5----|----6----|----7----|----8----|----9----|---10----|
/SH3N/30
    190933     25007     25008     27006
    190934     25008     27009     27006
    190935     25008     25009     27009
    190936     25009     27011     27009
    190937     25009     25010     27011
    190938     25010     27012     27011
    190939     25010     25011     27012
    190940     25011     27015     27012
    190941     25011     25012     27015
    190942     25012     27017     27015
    190943     25012     25045     27017
    190944     25045     27062     27017
    190945     25045     25046     27062
    190946     25046     27065     27062
    190947     25046     25047     27065
    190948     25047     27067     27065
    190949     25047     25048     27067
    190950     25048     27069     27067
    190951     25048     25049     27071
    190952     25048     27071     27069
# ... 4 like lines cut
#---1----|----2----|----3----|----4----|----5----|----6----|----7----|----8----|----9----|---10----|
/PART/31
HEAD
        51    100002        48
#---1----|----2----|----3----|----4----|----5----|----6----|----7----|----8----|----9----|---10----|
# SH3N elements of /PART/31/HEAD:
#---1----|----2----|----3----|----4----|----5----|----6----|----7----|----8----|----9----|---10----|
/SH3N/31
      5274      9050      9051      9053
      5275      9069      9072      9073
      5276      9068      9070      9071
      5277      9081      9031      9033
      5278      9081      9033      9080
      5279      9079      9083      9080
      5280      9084      9032      9033
      5281      9045      9054      9094
      5282      9060      9107      9103
      5283      9107      9109      9108
      5284      9114      9097      9058
      5285      9099      9097      9114
      5286      9005      9004      9097
      5287      9118      9064      9020
      5288      9116      9118      9115
      5289      9101      9102      9117
      5290      9104      9117      9101
      5291      9137      9124      9141
      5292      9141      9124      9139
      5293      9125      9122      9126
# ... 14 like lines cut
#---1----|----2----|----3----|----4----|----5----|----6----|----7----|----8----|----9----|---10----|
# SHELL elements of /PART/31/HEAD:
#---1----|----2----|----3----|----4----|----5----|----6----|----7----|----8----|----9----|---10----|
/SHELL/31
        80      9015      9067      9018      9016
        81      9016      9018      9019      9017
        82      9067      9020      9021      9018
        83      9018      9021      9022      9019
        84      9023      9026      9027      9024
        85      9024      9027      9028      9025
        86      9026      9015      9016      9027
        87      9027      9016      9017      9028
        88      9023      9024      9029      9031
        89      9024      9025      9030      9029
        90      9036      9039      9040      9038
        91      9038      9040      9034      9032
        92      9210      9035      9034      9209
        93      9032      9033      9031      9029
        94      9032      9029      9030      9038
        95      9038      9030      9044      9036
        96      9036      9044      9043      9037
        97      9044      9041      9042      9043
        98      9030      9025      9041      9044
        99      9042      9041      9048      9047
# ... 182 like lines cut
#---1----|----2----|----3----|----4----|----5----|----6----|----7----|----8----|----9----|---10----|
/PART/100
Stripes
    100002         0         0
#---1----|----2----|----3----|----4----|----5----|----6----|----7----|----8----|----9----|---10----|
# SPRING elements of /PART/100/Stripes:
#---1----|----2----|----3----|----4----|----5----|----6----|----7----|----8----|----9----|---10----|
/SPRING/100
       100     25038     28092                                        
       101     25019     28060                                        
       102     25052     28122                                        
       103     25004     28019                                        
#---1----|----2----|----3----|----4----|----5----|----6----|----7----|----8----|----9----|---10----|
#-  7. SUBSETS:
#---1----|----2----|----3----|----4----|----5----|----6----|----7----|----8----|----9----|---10----|
/SUBSET/1
CHAMBER 1
#---1----|----2----|----3----|----4----|----5----|----6----|----7----|----8----|----9----|---10----|
/SUBSET/2
CHAMBER 2
#---1----|----2----|----3----|----4----|----5----|----6----|----7----|----8----|----9----|---10----|
/SUBSET/3
CHAMBER 3
#---1----|----2----|----3----|----4----|----5----|----6----|----7----|----8----|----9----|---10----|
/SUBSET/4
CHAMBER 4
#---1----|----2----|----3----|----4----|----5----|----6----|----7----|----8----|----9----|---10----|
/SUBSET/5
CHAMBER 5
#---1----|----2----|----3----|----4----|----5----|----6----|----7----|----8----|----9----|---10----|
/SUBSET/6
CHAMBER 6
#---1----|----2----|----3----|----4----|----5----|----6----|----7----|----8----|----9----|---10----|
/SUBSET/7
CHAMBER 7
#---1----|----2----|----3----|----4----|----5----|----6----|----7----|----8----|----9----|---10----|
/SUBSET/8
CHAMBER 8
#---1----|----2----|----3----|----4----|----5----|----6----|----7----|----8----|----9----|---10----|
/SUBSET/9
CHAMBER 9
#---1----|----2----|----3----|----4----|----5----|----6----|----7----|----8----|----9----|---10----|
/SUBSET/10
Communication surfaces
#---1----|----2----|----3----|----4----|----5----|----6----|----7----|----8----|----9----|---10----|
/SUBSET/48
DUMMY
#---1----|----2----|----3----|----4----|----5----|----6----|----7----|----8----|----9----|---10----|
/SUBSET/100
EXTERNAL ENVELOPPE
         1         2         3         4         5         6         7         8         9
#---1----|----2----|----3----|----4----|----5----|----6----|----7----|----8----|----9----|---10----|
/SUBSET/102
AIRBAG with monitored volumes
        48
#---1----|----2----|----3----|----4----|----5----|----6----|----7----|----8----|----9----|---10----|
#-  8. GEOMETRICAL SETS:
#---1----|----2----|----3----|----4----|----5----|----6----|----7----|----8----|----9----|---10----|
/PROP/SH_ORTH/2
FABRIC
#   Ishell    Ismstr     Ish3n    Idrill                            P_thick_fail
         4        11         2         0                                       0
#         ismstr=1 + refgeo = ismstr=11
#                 hm                  hf                  hr                  dm                  dn
                 .05                 .05                   0                   0                   0
#        N   Istrain               Thick              Ashear              Ithick     Iplas
         1         1                 .33                   0                   0         0
#                 Vx                  Vy                  Vz                 Phi
                   1                   0                   0                   0
#---1----|----2----|----3----|----4----|----5----|----6----|----7----|----8----|----9----|---10----|
/PROP/SHELL/51
dummy
#   Ishell    Ismstr     Ish3n    Idrill                            P_thick_fail
         0         0         0         0                                       0
#                 hm                  hf                  hr                  dm                  dn
                   0                   0                   0                   0                   0
#        N   Istrain               Thick              Ashear              Ithick     Iplas
         0         0                   1                   0                   0         0
#---1----|----2----|----3----|----4----|----5----|----6----|----7----|----8----|----9----|---10----|
/PROP/INJECT1/1001
Injector
#   Ngases     Iflow            Ascale_T
         1         0                   0
#   mat_ID funct_IDM funct_IDT                      Fscale_M            Fscale_T
      1002         1         2                             0                   0
#---1----|----2----|----3----|----4----|----5----|----6----|----7----|----8----|----9----|---10----|
/PROP/SHELL/100001
fictitious
#   Ishell    Ismstr     Ish3n    Idrill                            P_thick_fail
         0         0         0         0                                       0
#                 hm                  hf                  hr                  dm                  dn
                   0                   0                   0                   0                   0
#        N   Istrain               Thick              Ashear              Ithick     Iplas
         1         0          .300000001                   0                   0         0
#---1----|----2----|----3----|----4----|----5----|----6----|----7----|----8----|----9----|---10----|
/PROP/SPRING/100002
Stripe
#                  M                               sensor_ID    Isflag     Ileng
                1E-6                                       0         0         0
#                  K                   C                   A                   B                   D
                   0                   0                   0                   0                   0
#funct_ID1         H funct_ID2 funct_ID3 funct_ID4                     delta_min           delta_max
         3         0         0         0         0                             0                   0
#            Fscale1                   E             Ascalex             HSCALE4
                   0                   0                   0                   0
#---1----|----2----|----3----|----4----|----5----|----6----|----7----|----8----|----9----|---10----|
#-  9. FUNCTIONS:
#---1----|----2----|----3----|----4----|----5----|----6----|----7----|----8----|----9----|---10----|
/MOVE_FUNCT/1
Scale
#            Ascalex             Fscaley             Ashiftx             Fshifty
                .001                1E-6                   0                   0
/FUNCT/1
mass input
#                  X                   Y
                   0                   0
                   2                   6
                   4                  11
                   5                  14
                   6                  17
                   8                  22
                  11                  29
                  12                  31
                  15                  36
                  19                  41
                  28                  45
                  30                  46
           100000000                  46
#---1----|----2----|----3----|----4----|----5----|----6----|----7----|----8----|----9----|---10----|
/MOVE_FUNCT/2
Scale
#            Ascalex             Fscaley             Ashiftx             Fshifty
                .001                   1                   0                   0
/FUNCT/2
temperature input
#                  X                   Y
                   0                 780
           100000000                 780
#---1----|----2----|----3----|----4----|----5----|----6----|----7----|----8----|----9----|---10----|
/FUNCT/3
New FUNCT 3
#                  X                   Y
                  -1                   0
                   0                   0
                 300                   0
                 320               10000
#---1----|----2----|----3----|----4----|----5----|----6----|----7----|----8----|----9----|---10----|
#- 10. SENSORS:
#---1----|----2----|----3----|----4----|----5----|----6----|----7----|----8----|----9----|---10----|
/SENSOR/TIME/1
TTF
#             Tdelay
                   0
#---1----|----2----|----3----|----4----|----5----|----6----|----7----|----8----|----9----|---10----|
#- 11. INTERFACES:
#---1----|----2----|----3----|----4----|----5----|----6----|----7----|----8----|----9----|---10----|
/INTER/TYPE19/2
AirbagSelfContact
#  Slav_id   Mast_id      Istf                Igap     Iedge      Ibag      Idel     Icurv
        38        39         4                   0         0         1         0         0
#          Gap_scale             Gap_max
                   0                   0
#              Stmin               Stmax                                   Dtmin
                1000                   0                                       0
#              Stfac                Fric             Gap_min              Tstart               Tstop
                   0                   0                  .3                   0                   0
#      IBC                        Inacti                VisS                VisF              Bumult
       000                             6                   0                   0                   0
#    Ifric    Ifiltr               Xfreq     Iform   Isensor                                 fric_ID
         0         0                   0         0         0                                       0
/SURF/PART/38
INTER_group_39_of_PART
         1         2         3         4         5         6         7         8         9        10
        11        12        13        14        15        16        17        18        19        20
        21        22        23        24        25        26        27        28        29        30
/SURF/PART/39
INTER_group_40_of_PART
         1         2         3         4         5         6         7         8         9        10
        11        12        13        14        15        16        17        18        19        20
        21        22        23        24        25        26        27        28        29        30
#---1----|----2----|----3----|----4----|----5----|----6----|----7----|----8----|----9----|---10----|
/INTER/TYPE19/3
head to airbag contact
#  Slav_id   Mast_id      Istf                Igap     Iedge      Ibag      Idel     Icurv
        40        41         4                   0         0         1         0         0
#          Gap_scale             Gap_max
                   0                   0
#              Stmin               Stmax                                   Dtmin
                1000                   0                                       0
#              Stfac                Fric             Gap_min              Tstart               Tstop
                   0                  .3                   5                   0                   0
#      IBC                        Inacti                VisS                VisF              Bumult
       000                             6                   0                   0                   0
#    Ifric    Ifiltr               Xfreq     Iform   Isensor                                 fric_ID
         0         0                   0         2         0                                       0
/SURF/PART/40
INTER_group_41_of_PART
        31
/SURF/PART/41
INTER_group_42_of_PART
         1         2         3         4         5         6         7         8         9        10
        11        12        13        14        15        16        17        18        19        20
        21        22        23        24        25        26        27        28        29        30
#---1----|----2----|----3----|----4----|----5----|----6----|----7----|----8----|----9----|---10----|
#- 12. RIGID WALLS:
#---1----|----2----|----3----|----4----|----5----|----6----|----7----|----8----|----9----|---10----|
/RWALL/PLANE/1
rigid wall
#  node_ID     Slide grnod_ID1 grnod_ID2
                   0         4         5
#           D_search                fric            Diameter                ffac       ifq
                   0                   0                   0                   0         0
#                 XM                  YM                  ZM
                   0                   0                  -2
#               X_M1                Y_M1                Z_M1
                   0                   0                -1.1
/GRNOD/PART/4
RWALL_group_38_of_PART
         1         2         3         4         5         6         7         8         9        10
        11        12        13        14        15        16        17        18        19        20
        21        22        23        24        25        26        27        28        29        30
#---1----|----2----|----3----|----4----|----5----|----6----|----7----|----8----|----9----|---10----|
#- 13. RIGID BODIES:
#---1----|----2----|----3----|----4----|----5----|----6----|----7----|----8----|----9----|---10----|
/RBODY/1
New RBODY 1
#     RBID     ISENS     NSKEW    ISPHER                MASS   Gnod_id     IKREM      ICOG   Surf_id
     34038         0         0         0               .0045         8         0         4         0
#                Jxx                 Jyy                 Jzz
                 .01                 .01                 .01
#                Jxy                 Jyz                 Jxz
                   0                   0                   0
#  Ioptoff   Iexpams
         0         0
/GRNOD/PART/8
RBODY_group_42_of_PART
        31
#---1----|----2----|----3----|----4----|----5----|----6----|----7----|----8----|----9----|---10----|
#- 14. MONITORED VOLUMES:
#---1----|----2----|----3----|----4----|----5----|----6----|----7----|----8----|----9----|---10----|
/MONVOL/COMMU1/1
Chamber 1
#surf_IDex                         Hconv
         5                             0
#            AscaleT             AscaleP             AscaleS             AscaleA             AscaleD
                   1                   1                   1                   1                   1
#   mat_ID                            Mu                Pext                  T0     Iequi      Ittf
      1001                          .001                  .1                 296         0         3
#     Njet
         1
#inject_ID   sens_ID      Ijet  node_ID1  node_ID2  node_ID3
      1001         1         0         0         0         0
#    Nvent  Nporsurf
         1         0
# surf_IDv     Iform               Avent               Bvent                              vent_title
         0         0                1000                   0                                        
#             Tstart               Tstop               dPdef              dtPdef             IdtPdef
                1E30                   0                   0                   0                   0
#  fct_IDt   fct_IDP   fct_IDA                       Fscalet             FscaleP             FscaleA
         0         0         0                             0                   0                   0
# fct_IDt'  fct_IDP'  fct_IDA'                      Fscalet'            FscaleP'            FscaleA'
         0         0         0                             0                   0                   0
#     Nbag
         4
#   bag_ID  surf_IDc              dPCdef                Acom                Tcom             dtPCdef
         2         6                   0                   1                1E30                   0
# fct_IDCT  fct_IDCP            FscaleCT            FscaleCP
         0         0                   0                   0
#   bag_ID  surf_IDc              dPCdef                Acom                Tcom             dtPCdef
         3         7                   0                   1                1E30                   0
# fct_IDCT  fct_IDCP            FscaleCT            FscaleCP
         0         0                   0                   0
#   bag_ID  surf_IDc              dPCdef                Acom                Tcom             dtPCdef
         4         8                   0                   1                1E30                   0
# fct_IDCT  fct_IDCP            FscaleCT            FscaleCP
         0         0                   0                   0
#   bag_ID  surf_IDc              dPCdef                Acom                Tcom             dtPCdef
         5         9                   0                   1                1E30                   0
# fct_IDCT  fct_IDCP            FscaleCT            FscaleCP
         0         0                   0                   0
/SURF/PART/5
Chamber 1
         8         9        30       -27       -28       -29
/SURF/PART/6
AIRBAGD00_volume_1_com._airbag_1
        27
/SURF/PART/7
AIRBAGD00_volume_1_com._airbag_2
        28
/SURF/PART/8
AIRBAGD00_volume_1_com._airbag_3
        29
/SURF/PART/9
AIRBAGD00_volume_1_com._airbag_4
        30
#---1----|----2----|----3----|----4----|----5----|----6----|----7----|----8----|----9----|---10----|
/MONVOL/COMMU1/2
Chamber 2
#surf_IDex                         Hconv
        10                             0
#            AscaleT             AscaleP             AscaleS             AscaleA             AscaleD
                   1                   1                   1                   1                   1
#   mat_ID                            Mu                Pext                  T0     Iequi      Ittf
      1001                          .001                  .1                 296         0         0
#     Njet
         0
#    Nvent  Nporsurf
         0         0
#     Nbag
         3
#   bag_ID  surf_IDc              dPCdef                Acom                Tcom             dtPCdef
         1        11                   0                   1                1E30                   0
# fct_IDCT  fct_IDCP            FscaleCT            FscaleCP
         0         0                   0                   0
#   bag_ID  surf_IDc              dPCdef                Acom                Tcom             dtPCdef
         6        12                   0                   1                1E30                   0
# fct_IDCT  fct_IDCP            FscaleCT            FscaleCP
         0         0                   0                   0
#   bag_ID  surf_IDc              dPCdef                Acom                Tcom             dtPCdef
         7        13                   0                   1                1E30                   0
# fct_IDCT  fct_IDCP            FscaleCT            FscaleCP
         0         0                   0                   0
/SURF/PART/10
Chamber 2
         6         7        19        27       -20
/SURF/PART/11
AIRBAGD00_volume_2_com._airbag_1
        27
/SURF/PART/12
AIRBAGD00_volume_2_com._airbag_2
        19
/SURF/PART/13
AIRBAGD00_volume_2_com._airbag_3
        20
#---1----|----2----|----3----|----4----|----5----|----6----|----7----|----8----|----9----|---10----|
/MONVOL/COMMU1/3
Chamber 3
#surf_IDex                         Hconv
        14                             0
#            AscaleT             AscaleP             AscaleS             AscaleA             AscaleD
                   1                   1                   1                   1                   1
#   mat_ID                            Mu                Pext                  T0     Iequi      Ittf
      1001                          .001                  .1                 296         0         0
#     Njet
         0
#    Nvent  Nporsurf
         0         0
#     Nbag
         3
#   bag_ID  surf_IDc              dPCdef                Acom                Tcom             dtPCdef
         1        15                   0                   1                1E30                   0
# fct_IDCT  fct_IDCP            FscaleCT            FscaleCP
         0         0                   0                   0
#   bag_ID  surf_IDc              dPCdef                Acom                Tcom             dtPCdef
         6        16                   0                   1                1E30                   0
# fct_IDCT  fct_IDCP            FscaleCT            FscaleCP
         0         0                   0                   0
#   bag_ID  surf_IDc              dPCdef                Acom                Tcom             dtPCdef
         8        17                   0                   1                1E30                   0
# fct_IDCT  fct_IDCP            FscaleCT            FscaleCP
         0         0                   0                   0
/SURF/PART/14
Chamber 3
         2         3        23        28       -21
/SURF/PART/15
AIRBAGD00_volume_3_com._airbag_1
        28
/SURF/PART/16
AIRBAGD00_volume_3_com._airbag_2
        21
/SURF/PART/17
AIRBAGD00_volume_3_com._airbag_3
        23
#---1----|----2----|----3----|----4----|----5----|----6----|----7----|----8----|----9----|---10----|
/MONVOL/COMMU1/4
Chamber 4
#surf_IDex                         Hconv
        18                             0
#            AscaleT             AscaleP             AscaleS             AscaleA             AscaleD
                   1                   1                   1                   1                   1
#   mat_ID                            Mu                Pext                  T0     Iequi      Ittf
      1001                          .001                  .1                 296         0         0
#     Njet
         0
#    Nvent  Nporsurf
         0         0
#     Nbag
         3
#   bag_ID  surf_IDc              dPCdef                Acom                Tcom             dtPCdef
         1        19                   0                   1                1E30                   0
# fct_IDCT  fct_IDCP            FscaleCT            FscaleCP
         0         0                   0                   0
#   bag_ID  surf_IDc              dPCdef                Acom                Tcom             dtPCdef
         7        20                   0                   1                1E30                   0
# fct_IDCT  fct_IDCP            FscaleCT            FscaleCP
         0         0                   0                   0
#   bag_ID  surf_IDc              dPCdef                Acom                Tcom             dtPCdef
         9        21                   0                   1                1E30                   0
# fct_IDCT  fct_IDCP            FscaleCT            FscaleCP
         0         0                   0                   0
/SURF/PART/18
Chamber 4
        14        15        22        29       -24
/SURF/PART/19
AIRBAGD00_volume_4_com._airbag_1
        29
/SURF/PART/20
AIRBAGD00_volume_4_com._airbag_2
        22
/SURF/PART/21
AIRBAGD00_volume_4_com._airbag_3
        24
#---1----|----2----|----3----|----4----|----5----|----6----|----7----|----8----|----9----|---10----|
/MONVOL/COMMU1/5
Chamber 5
#surf_IDex                         Hconv
        22                             0
#            AscaleT             AscaleP             AscaleS             AscaleA             AscaleD
                   1                   1                   1                   1                   1
#   mat_ID                            Mu                Pext                  T0     Iequi      Ittf
      1001                          .001                  .1                 296         0         0
#     Njet
         0
#    Nvent  Nporsurf
         0         0
#     Nbag
         3
#   bag_ID  surf_IDc              dPCdef                Acom                Tcom             dtPCdef
         1        23                   0                   1                1E30                   0
# fct_IDCT  fct_IDCP            FscaleCT            FscaleCP
         0         0                   0                   0
#   bag_ID  surf_IDc              dPCdef                Acom                Tcom             dtPCdef
         8        24                   0                   1                1E30                   0
# fct_IDCT  fct_IDCP            FscaleCT            FscaleCP
         0         0                   0                   0
#   bag_ID  surf_IDc              dPCdef                Acom                Tcom             dtPCdef
         9        25                   0                   1                1E30                   0
# fct_IDCT  fct_IDCP            FscaleCT            FscaleCP
         0         0                   0                   0
/SURF/PART/22
Chamber 5
        10        11        26       -25       -30
/SURF/PART/23
AIRBAGD00_volume_5_com._airbag_1
        30
/SURF/PART/24
AIRBAGD00_volume_5_com._airbag_2
        25
/SURF/PART/25
AIRBAGD00_volume_5_com._airbag_3
        26
#---1----|----2----|----3----|----4----|----5----|----6----|----7----|----8----|----9----|---10----|
/MONVOL/COMMU1/6
Chamber 6
#surf_IDex                         Hconv
        26                             0
#            AscaleT             AscaleP             AscaleS             AscaleA             AscaleD
                   1                   1                   1                   1                   1
#   mat_ID                            Mu                Pext                  T0     Iequi      Ittf
      1001                          .001                  .1                 296         0         0
#     Njet
         0
#    Nvent  Nporsurf
         0         0
#     Nbag
         2
#   bag_ID  surf_IDc              dPCdef                Acom                Tcom             dtPCdef
         2        27                   0                   1                1E30                   0
# fct_IDCT  fct_IDCP            FscaleCT            FscaleCP
         0         0                   0                   0
#   bag_ID  surf_IDc              dPCdef                Acom                Tcom             dtPCdef
         3        28                   0                   1                1E30                   0
# fct_IDCT  fct_IDCP            FscaleCT            FscaleCP
         0         0                   0                   0
/SURF/PART/26
Chamber 6
         1        18        21       -19
/SURF/PART/27
AIRBAGD00_volume_6_com._airbag_1
        19
/SURF/PART/28
AIRBAGD00_volume_6_com._airbag_2
        21
#---1----|----2----|----3----|----4----|----5----|----6----|----7----|----8----|----9----|---10----|
/MONVOL/COMMU1/7
Chamber 7
#surf_IDex                         Hconv
        29                             0
#            AscaleT             AscaleP             AscaleS             AscaleA             AscaleD
                   1                   1                   1                   1                   1
#   mat_ID                            Mu                Pext                  T0     Iequi      Ittf
      1001                          .001                  .1                 296         0         0
#     Njet
         0
#    Nvent  Nporsurf
         0         0
#     Nbag
         2
#   bag_ID  surf_IDc              dPCdef                Acom                Tcom             dtPCdef
         2        30                   0                   1                1E30                   0
# fct_IDCT  fct_IDCP            FscaleCT            FscaleCP
         0         0                   0                   0
#   bag_ID  surf_IDc              dPCdef                Acom                Tcom             dtPCdef
         4        31                   0                   1                1E30                   0
# fct_IDCT  fct_IDCP            FscaleCT            FscaleCP
         0         0                   0                   0
/SURF/PART/29
Chamber 7
        12        13        20       -22
/SURF/PART/30
AIRBAGD00_volume_7_com._airbag_1
        20
/SURF/PART/31
AIRBAGD00_volume_7_com._airbag_2
        22
#---1----|----2----|----3----|----4----|----5----|----6----|----7----|----8----|----9----|---10----|
/MONVOL/COMMU1/8
Chamber 8
#surf_IDex                         Hconv
        32                             0
#            AscaleT             AscaleP             AscaleS             AscaleA             AscaleD
                   1                   1                   1                   1                   1
#   mat_ID                            Mu                Pext                  T0     Iequi      Ittf
      1001                          .001                  .1                 296         0         0
#     Njet
         0
#    Nvent  Nporsurf
         0         0
#     Nbag
         2
#   bag_ID  surf_IDc              dPCdef                Acom                Tcom             dtPCdef
         3        33                   0                   1                1E30                   0
# fct_IDCT  fct_IDCP            FscaleCT            FscaleCP
         0         0                   0                   0
#   bag_ID  surf_IDc              dPCdef                Acom                Tcom             dtPCdef
         5        34                   0                   1                1E30                   0
# fct_IDCT  fct_IDCP            FscaleCT            FscaleCP
         0         0                   0                   0
/SURF/PART/32
Chamber 8
         4         5        25       -23
/SURF/PART/33
AIRBAGD00_volume_8_com._airbag_1
        23
/SURF/PART/34
AIRBAGD00_volume_8_com._airbag_2
        25
#---1----|----2----|----3----|----4----|----5----|----6----|----7----|----8----|----9----|---10----|
/MONVOL/COMMU1/9
Chamber 9
#surf_IDex                         Hconv
        35                             0
#            AscaleT             AscaleP             AscaleS             AscaleA             AscaleD
                   1                   1                   1                   1                   1
#   mat_ID                            Mu                Pext                  T0     Iequi      Ittf
      1001                          .001                  .1                 296         0         0
#     Njet
         0
#    Nvent  Nporsurf
         0         0
#     Nbag
         2
#   bag_ID  surf_IDc              dPCdef                Acom                Tcom             dtPCdef
         4        36                   0                   1                1E30                   0
# fct_IDCT  fct_IDCP            FscaleCT            FscaleCP
         0         0                   0                   0
#   bag_ID  surf_IDc              dPCdef                Acom                Tcom             dtPCdef
         5        37                   0                   1                1E30                   0
# fct_IDCT  fct_IDCP            FscaleCT            FscaleCP
         0         0                   0                   0
/SURF/PART/35
Chamber 9
        16        17        24       -26
/SURF/PART/36
AIRBAGD00_volume_9_com._airbag_1
        24
/SURF/PART/37
AIRBAGD00_volume_9_com._airbag_2
        26
#---1----|----2----|----3----|----4----|----5----|----6----|----7----|----8----|----9----|---10----|
#- 15. 3 NODE SHELL GROUPS:
#---1----|----2----|----3----|----4----|----5----|----6----|----7----|----8----|----9----|---10----|
/GRSH3N/SH3N/43
^err_agl_elems
    190042    190674    190696    190850    190968    190974    191121    191128    191144    191150
    191385    191392    191408    191414    191561    191568    191584    191590    191605    191612
#---1----|----2----|----3----|----4----|----5----|----6----|----7----|----8----|----9----|---10----|
#- 16. TIME HISTORIES:
#---1----|----2----|----3----|----4----|----5----|----6----|----7----|----8----|----9----|---10----|
/TH/PART/1
PARTS
#     var1      var2      var3      var4      var5      var6      var7      var8      var9     var10
DEF       
#     Obj1      Obj2      Obj3      Obj4      Obj5      Obj6      Obj7      Obj8      Obj9     Obj10
         1         2         3         4         5         6         7         8         9        10
        11        12        13        14        15        16        17        18        19        20
        21        22        23        24        25        26        27        28        29        30
#---1----|----2----|----3----|----4----|----5----|----6----|----7----|----8----|----9----|---10----|
/TH/MONV/2
Chambers
#     var1      var2      var3      var4      var5      var6      var7      var8      var9     var10
DEF       GAS       
#     Obj1      Obj2      Obj3      Obj4      Obj5      Obj6      Obj7      Obj8      Obj9     Obj10
         1         2         3         4         5         6         7         8         9
#---1----|----2----|----3----|----4----|----5----|----6----|----7----|----8----|----9----|---10----|
/TH/RWALL/102
TH RWALL
#     var1      var2      var3      var4      var5      var6      var7      var8      var9     var10
DEF       
#     Obj1      Obj2      Obj3      Obj4      Obj5      Obj6      Obj7      Obj8      Obj9     Obj10
         1
#---1----|----2----|----3----|----4----|----5----|----6----|----7----|----8----|----9----|---10----|
/TH/INTER/103
TH INTER
#     var1      var2      var3      var4      var5      var6      var7      var8      var9     var10
DEF       
#     Obj1      Obj2      Obj3      Obj4      Obj5      Obj6      Obj7      Obj8      Obj9     Obj10
         2         3
#---1----|----2----|----3----|----4----|----5----|----6----|----7----|----8----|----9----|---10----|
/TH/SPRING/105
New TH 102
#     var1      var2      var3      var4      var5      var6      var7      var8      var9     var10
DEF       
#     Elid                                                      Elname
       100          New_TH_Spring_100                                                               
       101          New_TH_Spring_101                                                               
       102          New_TH_Spring_102                                                               
       103          New_TH_Spring_103                                                               
#---1----|----2----|----3----|----4----|----5----|----6----|----7----|----8----|----9----|---10----|
/TH/RBODY/106
TH RBODY
#     var1      var2      var3      var4      var5      var6      var7      var8      var9     var10
DEF       
#     Obj1      Obj2      Obj3      Obj4      Obj5      Obj6      Obj7      Obj8      Obj9     Obj10
         1
#---1----|----2----|----3----|----4----|----5----|----6----|----7----|----8----|----9----|---10----|
/TH/NODE/107
TH NODE
#     var1      var2      var3      var4      var5      var6      var7      var8      var9     var10
A         DEF       
#    NODid     Iskew                                           NODname
     34038         0                                                                                
#---1----|----2----|----3----|----4----|----5----|----6----|----7----|----8----|----9----|---10----|
/END
#---1----|----2----|----3----|----4----|----5----|----6----|----7----|----8----|----9----|---10----|
